
     RDKit          3D

 60 62  0  0  0  0  0  0  0  0999 V2000
    1.3792   -2.4734    0.9907 C   0  0  0  0  0  0  0  0  0  0  0  0
    2.0417   -1.3474    0.2347 C   0  0  0  0  0  0  0  0  0  0  0  0
    1.2539   -0.3817   -0.4344 C   0  0  0  0  0  0  0  0  0  0  0  0
   -0.1048   -0.5421   -0.3443 O   0  0  0  0  0  0  0  0  0  0  0  0
   -0.9437    0.4709   -0.9119 C   0  0  0  0  0  0  0  0  0  0  0  0
   -2.3960    0.0922   -0.5880 C   0  0  0  0  0  0  0  0  0  0  0  0
   -2.7115   -1.1620   -1.2072 O   0  0  0  0  0  0  0  0  0  0  0  0
   -3.3709    1.1672   -1.0831 C   0  0  0  0  0  0  0  0  0  0  0  0
   -4.8603    0.8074   -0.9469 C   0  0  0  0  0  0  0  0  0  0  0  0
   -5.1786   -0.2802   -1.8119 O   0  0  0  0  0  0  0  0  0  0  0  0
   -5.2765    0.4654    0.4885 C   0  0  0  0  0  0  0  0  0  0  0  0
   -6.7782    0.1900    0.6649 C   0  0  0  0  0  0  0  0  0  0  0  0
   -7.7250    1.3447    0.2867 C   0  0  0  0  0  0  0  0  0  0  0  0
   -9.1774    0.9203    0.5254 C   0  0  0  0  0  0  0  0  0  0  0  0
   -7.4265    2.6257    1.0660 C   0  0  0  0  0  0  0  0  0  0  0  0
    1.8680    0.6570   -1.1418 C   0  0  0  0  0  0  0  0  0  0  0  0
    3.2569    0.7559   -1.1852 C   0  0  0  0  0  0  0  0  0  0  0  0
    4.0443   -0.1832   -0.5248 C   0  0  0  0  0  0  0  0  0  0  0  0
    5.3999    0.0031   -0.6298 O   0  0  0  0  0  0  0  0  0  0  0  0
    6.2426   -0.8914    0.0014 C   0  0  0  0  0  0  0  0  0  0  0  0
    7.6787   -0.6087   -0.1888 C   0  0  0  0  0  0  0  0  0  0  0  0
    8.1514   -0.1972   -1.4447 C   0  0  0  0  0  0  0  0  0  0  0  0
    9.5052    0.0850   -1.6428 C   0  0  0  0  0  0  0  0  0  0  0  0
   10.4038   -0.0348   -0.5856 C   0  0  0  0  0  0  0  0  0  0  0  0
    9.9501   -0.4347    0.6693 C   0  0  0  0  0  0  0  0  0  0  0  0
    8.5959   -0.7172    0.8677 C   0  0  0  0  0  0  0  0  0  0  0  0
    5.8169   -1.9449    0.7077 C   0  0  0  0  0  0  0  0  0  0  0  0
    4.3722   -2.1851    0.8577 C   0  0  0  0  0  0  0  0  0  0  0  0
    3.9989   -3.1423    1.5219 O   0  0  0  0  0  0  0  0  0  0  0  0
    3.4530   -1.2325    0.1842 C   0  0  0  0  0  0  0  0  0  0  0  0
    0.2879   -2.4520    0.9251 H   0  0  0  0  0  0  0  0  0  0  0  0
    1.6917   -3.4394    0.5833 H   0  0  0  0  0  0  0  0  0  0  0  0
    1.6287   -2.4126    2.0539 H   0  0  0  0  0  0  0  0  0  0  0  0
   -0.7105    1.4474   -0.4721 H   0  0  0  0  0  0  0  0  0  0  0  0
   -0.8014    0.4874   -1.9989 H   0  0  0  0  0  0  0  0  0  0  0  0
   -2.4979   -0.0531    0.4930 H   0  0  0  0  0  0  0  0  0  0  0  0
   -1.9736   -1.7639   -0.9814 H   0  0  0  0  0  0  0  0  0  0  0  0
   -3.1747    1.3443   -2.1496 H   0  0  0  0  0  0  0  0  0  0  0  0
   -3.1724    2.1066   -0.5523 H   0  0  0  0  0  0  0  0  0  0  0  0
   -5.4341    1.6688   -1.3023 H   0  0  0  0  0  0  0  0  0  0  0  0
   -4.4578   -0.9390   -1.7044 H   0  0  0  0  0  0  0  0  0  0  0  0
   -4.7574   -0.4460    0.8096 H   0  0  0  0  0  0  0  0  0  0  0  0
   -4.9613    1.2638    1.1691 H   0  0  0  0  0  0  0  0  0  0  0  0
   -7.0456   -0.6974    0.0767 H   0  0  0  0  0  0  0  0  0  0  0  0
   -6.9480   -0.0831    1.7156 H   0  0  0  0  0  0  0  0  0  0  0  0
   -7.6220    1.5597   -0.7833 H   0  0  0  0  0  0  0  0  0  0  0  0
   -9.4186    0.0172   -0.0454 H   0  0  0  0  0  0  0  0  0  0  0  0
   -9.3627    0.7118    1.5847 H   0  0  0  0  0  0  0  0  0  0  0  0
   -9.8690    1.7081    0.2096 H   0  0  0  0  0  0  0  0  0  0  0  0
   -7.4632    2.4510    2.1465 H   0  0  0  0  0  0  0  0  0  0  0  0
   -6.4371    3.0232    0.8176 H   0  0  0  0  0  0  0  0  0  0  0  0
   -8.1575    3.4048    0.8255 H   0  0  0  0  0  0  0  0  0  0  0  0
    1.2952    1.4078   -1.6765 H   0  0  0  0  0  0  0  0  0  0  0  0
    3.7257    1.5679   -1.7361 H   0  0  0  0  0  0  0  0  0  0  0  0
    7.4674   -0.0992   -2.2850 H   0  0  0  0  0  0  0  0  0  0  0  0
    9.8555    0.3991   -2.6225 H   0  0  0  0  0  0  0  0  0  0  0  0
   11.4571    0.1853   -0.7387 H   0  0  0  0  0  0  0  0  0  0  0  0
   10.6492   -0.5239    1.4969 H   0  0  0  0  0  0  0  0  0  0  0  0
    8.2671   -1.0109    1.8630 H   0  0  0  0  0  0  0  0  0  0  0  0
    6.4762   -2.6597    1.1831 H   0  0  0  0  0  0  0  0  0  0  0  0
  1  2  1  0
  2  3  2  0
  3  4  1  0
  4  5  1  0
  5  6  1  0
  6  7  1  0
  6  8  1  0
  8  9  1  0
  9 10  1  0
  9 11  1  0
 11 12  1  0
 12 13  1  0
 13 14  1  0
 13 15  1  0
  3 16  1  0
 16 17  2  0
 17 18  1  0
 18 19  1  0
 19 20  1  0
 20 21  1  0
 21 22  2  0
 22 23  1  0
 23 24  2  0
 24 25  1  0
 25 26  2  0
 20 27  2  0
 27 28  1  0
 28 29  2  0
 28 30  1  0
 30  2  1  0
 30 18  2  0
 26 21  1  0
  1 31  1  0
  1 32  1  0
  1 33  1  0
  5 34  1  0
  5 35  1  0
  6 36  1  0
  7 37  1  0
  8 38  1  0
  8 39  1  0
  9 40  1  0
 10 41  1  0
 11 42  1  0
 11 43  1  0
 12 44  1  0
 12 45  1  0
 13 46  1  0
 14 47  1  0
 14 48  1  0
 14 49  1  0
 15 50  1  0
 15 51  1  0
 15 52  1  0
 16 53  1  0
 17 54  1  0
 22 55  1  0
 23 56  1  0
 24 57  1  0
 25 58  1  0
 26 59  1  0
 27 60  1  0
M  END
$$$$
