
     RDKit          3D

 39 41  0  0  0  0  0  0  0  0999 V2000
   -5.4407    0.5159    0.7843 C   0  0  0  0  0  0  0  0  0  0  0  0
   -4.0235    0.8196    0.6061 N   0  0  0  0  0  0  0  0  0  0  0  0
   -3.2012    0.0528    1.5644 C   0  0  0  0  0  0  0  0  0  0  0  0
   -1.7403   -0.1048    1.1059 C   0  0  0  0  0  0  0  0  0  0  0  0
   -1.6587   -0.9122   -0.1561 N   0  0  0  0  0  0  0  0  0  0  0  0
   -0.1940   -0.7795   -0.9974 S   0  0  0  0  0  0  0  0  0  0  0  0
    0.0419    0.6221   -1.2451 O   0  0  0  0  0  0  0  0  0  0  0  0
   -0.2273   -1.7463   -2.0689 O   0  0  0  0  0  0  0  0  0  0  0  0
    0.8354   -1.3581    0.1993 N   0  0  0  0  0  0  0  0  0  0  0  0
    2.2084   -1.1925   -0.1222 C   0  0  0  0  0  0  0  0  0  0  0  0
    2.7159   -2.3181   -0.6595 N   0  0  0  0  0  0  0  0  0  0  0  0
    4.0035   -2.2668   -1.0510 C   0  0  0  0  0  0  0  0  0  0  0  0
    4.8092   -1.1488   -0.9104 C   0  0  0  0  0  0  0  0  0  0  0  0
    4.2739    0.0022   -0.3209 C   0  0  0  0  0  0  0  0  0  0  0  0
    5.0588    1.1546   -0.1359 C   0  0  0  0  0  0  0  0  0  0  0  0
    4.5218    2.2900    0.4710 C   0  0  0  0  0  0  0  0  0  0  0  0
    3.2017    2.2776    0.8966 C   0  0  0  0  0  0  0  0  0  0  0  0
    2.6912    3.3633    1.4919 F   0  0  0  0  0  0  0  0  0  0  0  0
    2.4042    1.1537    0.7216 C   0  0  0  0  0  0  0  0  0  0  0  0
    2.9248   -0.0022    0.0985 C   0  0  0  0  0  0  0  0  0  0  0  0
   -2.8730   -0.7486   -1.0246 C   0  0  0  0  0  0  0  0  0  0  0  0
   -3.5794    0.5980   -0.7856 C   0  0  0  0  0  0  0  0  0  0  0  0
   -5.7492    0.7107    1.8175 H   0  0  0  0  0  0  0  0  0  0  0  0
   -5.6740   -0.5275    0.5440 H   0  0  0  0  0  0  0  0  0  0  0  0
   -6.0546    1.1619    0.1469 H   0  0  0  0  0  0  0  0  0  0  0  0
   -3.2219    0.5657    2.5328 H   0  0  0  0  0  0  0  0  0  0  0  0
   -3.6200   -0.9512    1.7190 H   0  0  0  0  0  0  0  0  0  0  0  0
   -1.1816   -0.6282    1.8894 H   0  0  0  0  0  0  0  0  0  0  0  0
   -1.2923    0.8858    0.9681 H   0  0  0  0  0  0  0  0  0  0  0  0
    0.6783   -2.3660    0.2239 H   0  0  0  0  0  0  0  0  0  0  0  0
    4.3883   -3.1789   -1.4996 H   0  0  0  0  0  0  0  0  0  0  0  0
    5.8395   -1.1846   -1.2509 H   0  0  0  0  0  0  0  0  0  0  0  0
    6.0973    1.1752   -0.4604 H   0  0  0  0  0  0  0  0  0  0  0  0
    5.1248    3.1806    0.6168 H   0  0  0  0  0  0  0  0  0  0  0  0
    1.3764    1.1880    1.0695 H   0  0  0  0  0  0  0  0  0  0  0  0
   -3.5532   -1.5807   -0.8053 H   0  0  0  0  0  0  0  0  0  0  0  0
   -2.6174   -0.8340   -2.0861 H   0  0  0  0  0  0  0  0  0  0  0  0
   -4.4145    0.7064   -1.4885 H   0  0  0  0  0  0  0  0  0  0  0  0
   -2.8785    1.4052   -1.0347 H   0  0  0  0  0  0  0  0  0  0  0  0
  1  2  1  0
  2  3  1  0
  3  4  1  0
  4  5  1  0
  5  6  1  0
  6  7  2  0
  6  8  2  0
  6  9  1  0
  9 10  1  0
 10 11  2  0
 11 12  1  0
 12 13  2  0
 13 14  1  0
 14 15  2  0
 15 16  1  0
 16 17  2  0
 17 18  1  0
 17 19  1  0
 19 20  2  0
  5 21  1  0
 21 22  1  0
 22  2  1  0
 20 10  1  0
 20 14  1  0
  1 23  1  0
  1 24  1  0
  1 25  1  0
  3 26  1  0
  3 27  1  0
  4 28  1  0
  4 29  1  0
  9 30  1  0
 12 31  1  0
 13 32  1  0
 15 33  1  0
 16 34  1  0
 19 35  1  0
 21 36  1  0
 21 37  1  0
 22 38  1  0
 22 39  1  0
M  END
$$$$
