
     RDKit          3D

 49 52  0  0  0  0  0  0  0  0999 V2000
   -2.3581   -3.2603    0.4465 C   0  0  0  0  0  0  0  0  0  0  0  0
   -1.1177   -2.9446    1.0688 O   0  0  0  0  0  0  0  0  0  0  0  0
   -0.7123   -1.5868    0.8454 C   0  0  2  0  0  0  0  0  0  0  0  0
    0.7389   -1.4246    1.2758 C   0  0  2  0  0  0  0  0  0  0  0  0
    0.9416   -2.1230    2.5184 O   0  0  0  0  0  0  0  0  0  0  0  0
    0.8611    0.0819    1.5088 C   0  0  1  0  0  0  0  0  0  0  0  0
    1.2584    0.8774    0.2461 C   0  0  0  0  0  0  0  0  0  0  0  0
    2.5384    0.4767   -0.3644 N   0  0  0  0  0  0  0  0  0  0  0  0
    3.6743    0.6794    0.5560 C   0  0  0  0  0  0  0  0  0  0  0  0
    5.0260    0.7976   -0.1521 C   0  0  0  0  0  0  0  0  0  0  0  0
    5.0152    0.0279   -1.4576 C   0  0  0  0  0  0  0  0  0  0  0  0
    6.2226    0.1699   -2.0699 F   0  0  0  0  0  0  0  0  0  0  0  0
    3.9268    0.5380   -2.3943 C   0  0  0  0  0  0  0  0  0  0  0  0
    2.7534    1.1662   -1.6400 C   0  0  0  0  0  0  0  0  0  0  0  0
   -0.4489    0.5404    1.9341 O   0  0  0  0  0  0  0  0  0  0  0  0
   -1.3754   -0.5517    1.7640 C   0  0  1  0  0  0  0  0  0  0  0  0
   -2.6392   -0.0052    1.3202 N   0  0  0  0  0  0  0  0  0  0  0  0
   -3.7494    0.1348    2.1159 C   0  0  0  0  0  0  0  0  0  0  0  0
   -4.7727    0.6338    1.4563 N   0  0  0  0  0  0  0  0  0  0  0  0
   -4.2944    0.8501    0.1810 C   0  0  0  0  0  0  0  0  0  0  0  0
   -4.8947    1.3723   -0.9771 C   0  0  0  0  0  0  0  0  0  0  0  0
   -6.2188    1.7900   -1.0251 N   0  0  0  0  0  0  0  0  0  0  0  0
   -4.1460    1.4905   -2.0963 N   0  0  0  0  0  0  0  0  0  0  0  0
   -2.8625    1.0756   -2.0536 C   0  0  0  0  0  0  0  0  0  0  0  0
   -2.1873    0.5442   -1.0142 N   0  0  0  0  0  0  0  0  0  0  0  0
   -2.9652    0.4684    0.0785 C   0  0  0  0  0  0  0  0  0  0  0  0
   -3.1791   -2.7254    0.9293 H   0  0  0  0  0  0  0  0  0  0  0  0
   -2.3275   -3.0293   -0.6225 H   0  0  0  0  0  0  0  0  0  0  0  0
   -2.5341   -4.3329    0.5649 H   0  0  0  0  0  0  0  0  0  0  0  0
   -0.7874   -1.3431   -0.2186 H   0  0  0  0  0  0  0  0  0  0  0  0
    1.4523   -1.8392    0.5589 H   0  0  0  0  0  0  0  0  0  0  0  0
    0.5488   -3.0093    2.3807 H   0  0  0  0  0  0  0  0  0  0  0  0
    1.5525    0.3030    2.3293 H   0  0  0  0  0  0  0  0  0  0  0  0
    1.2628    1.9490    0.4889 H   0  0  0  0  0  0  0  0  0  0  0  0
    0.4595    0.7570   -0.4951 H   0  0  0  0  0  0  0  0  0  0  0  0
    3.7139   -0.1750    1.2422 H   0  0  0  0  0  0  0  0  0  0  0  0
    3.5372    1.5790    1.1699 H   0  0  0  0  0  0  0  0  0  0  0  0
    5.8316    0.4360    0.4969 H   0  0  0  0  0  0  0  0  0  0  0  0
    5.2533    1.8515   -0.3583 H   0  0  0  0  0  0  0  0  0  0  0  0
    4.8770   -1.0419   -1.2625 H   0  0  0  0  0  0  0  0  0  0  0  0
    4.3424    1.2691   -3.0978 H   0  0  0  0  0  0  0  0  0  0  0  0
    3.5724   -0.3030   -3.0035 H   0  0  0  0  0  0  0  0  0  0  0  0
    2.9369    2.2362   -1.4750 H   0  0  0  0  0  0  0  0  0  0  0  0
    1.8655    1.0937   -2.2803 H   0  0  0  0  0  0  0  0  0  0  0  0
   -1.5497   -0.9924    2.7544 H   0  0  0  0  0  0  0  0  0  0  0  0
   -3.7555   -0.1437    3.1629 H   0  0  0  0  0  0  0  0  0  0  0  0
   -6.3793    2.4588   -1.7665 H   0  0  0  0  0  0  0  0  0  0  0  0
   -6.6051    1.9993   -0.1110 H   0  0  0  0  0  0  0  0  0  0  0  0
   -2.3027    1.1835   -2.9786 H   0  0  0  0  0  0  0  0  0  0  0  0
  1  2  1  0
  2  3  1  0
  3  4  1  0
  4  5  1  0
  4  6  1  0
  6  7  1  0
  7  8  1  0
  8  9  1  0
  9 10  1  0
 10 11  1  0
 11 12  1  0
 11 13  1  0
 13 14  1  0
  6 15  1  0
 15 16  1  0
 16 17  1  0
 17 18  1  0
 18 19  2  0
 19 20  1  0
 20 21  2  0
 21 22  1  0
 21 23  1  0
 23 24  2  0
 24 25  1  0
 25 26  2  0
 16  3  1  0
 26 17  1  0
 14  8  1  0
 26 20  1  0
  1 27  1  0
  1 28  1  0
  1 29  1  0
  3 30  1  6
  4 31  1  6
  5 32  1  0
  6 33  1  1
  7 34  1  0
  7 35  1  0
  9 36  1  0
  9 37  1  0
 10 38  1  0
 10 39  1  0
 11 40  1  0
 13 41  1  0
 13 42  1  0
 14 43  1  0
 14 44  1  0
 16 45  1  1
 18 46  1  0
 22 47  1  0
 22 48  1  0
 24 49  1  0
M  END
$$$$
