
     RDKit          3D

 63 67  0  0  0  0  0  0  0  0999 V2000
   -6.1710    4.3117   -0.6827 N   0  0  0  0  0  0  0  0  0  0  0  0
   -5.8882    2.9512   -0.6646 C   0  0  0  0  0  0  0  0  0  0  0  0
   -6.4584    2.1699   -1.6080 N   0  0  0  0  0  0  0  0  0  0  0  0
   -6.1904    0.8471   -1.5847 C   0  0  0  0  0  0  0  0  0  0  0  0
   -5.3998    0.1669   -0.7338 N   0  0  0  0  0  0  0  0  0  0  0  0
   -4.8351    0.9882    0.1675 C   0  0  0  0  0  0  0  0  0  0  0  0
   -5.0236    2.3585    0.2707 C   0  0  0  0  0  0  0  0  0  0  0  0
   -4.2837    2.8859    1.3094 N   0  0  0  0  0  0  0  0  0  0  0  0
   -3.6646    1.8507    1.8312 C   0  0  0  0  0  0  0  0  0  0  0  0
   -3.9607    0.6784    1.1750 N   0  0  0  0  0  0  0  0  0  0  0  0
   -3.3807   -0.6151    1.5187 C   0  0  1  0  0  0  0  0  0  0  0  0
   -4.3253   -1.8313    1.3664 C   0  0  0  0  0  0  0  0  0  0  0  0
   -3.9399   -2.7465    0.2106 C   0  0  0  0  0  0  0  0  0  0  0  0
   -2.5013   -3.2631    0.3321 C   0  0  1  0  0  0  0  0  0  0  0  0
   -1.9823   -3.4913   -0.9798 O   0  0  0  0  0  0  0  0  0  0  0  0
   -1.5617   -2.2999    1.0688 C   0  0  0  0  0  0  0  0  0  0  0  0
   -1.9648   -0.8228    0.8886 C   0  0  0  0  0  0  0  0  0  0  0  0
   -1.8993   -0.4511   -0.5347 N   0  0  0  0  0  0  0  0  0  0  0  0
   -0.9250    0.5924   -0.8485 C   0  0  0  0  0  0  0  0  0  0  0  0
    0.5156    0.1707   -0.6604 C   0  0  0  0  0  0  0  0  0  0  0  0
    1.0581   -0.8844   -1.4133 C   0  0  0  0  0  0  0  0  0  0  0  0
    2.3849   -1.2791   -1.2304 C   0  0  0  0  0  0  0  0  0  0  0  0
    3.1851   -0.6012   -0.3097 C   0  0  0  0  0  0  0  0  0  0  0  0
    4.5790   -1.0431   -0.1059 C   0  0  0  0  0  0  0  0  0  0  0  0
    4.7619   -2.1882    0.2989 O   0  0  0  0  0  0  0  0  0  0  0  0
    5.6119   -0.1485   -0.3649 N   0  0  0  0  0  0  0  0  0  0  0  0
    6.9778   -0.6236   -0.1413 C   0  0  0  0  0  0  0  0  0  0  0  0
    8.0513    0.4074   -0.5364 C   0  0  0  0  0  0  0  0  0  0  0  0
    7.7089    1.7726   -0.1074 N   0  0  0  0  0  0  0  0  0  0  0  0
    6.4134    2.1892   -0.6809 C   0  0  0  0  0  0  0  0  0  0  0  0
    5.4946    1.0578   -1.1882 C   0  0  0  0  0  0  0  0  0  0  0  0
    2.6588    0.4428    0.4568 C   0  0  0  0  0  0  0  0  0  0  0  0
    1.3298    0.8305    0.2748 C   0  0  0  0  0  0  0  0  0  0  0  0
   -5.4741    4.8677   -0.2010 H   0  0  0  0  0  0  0  0  0  0  0  0
   -6.4717    4.6197   -1.5972 H   0  0  0  0  0  0  0  0  0  0  0  0
   -6.6782    0.2548   -2.3535 H   0  0  0  0  0  0  0  0  0  0  0  0
   -2.9872    1.8882    2.6744 H   0  0  0  0  0  0  0  0  0  0  0  0
   -3.2192   -0.5353    2.6058 H   0  0  0  0  0  0  0  0  0  0  0  0
   -4.2687   -2.4251    2.2892 H   0  0  0  0  0  0  0  0  0  0  0  0
   -5.3749   -1.5306    1.2836 H   0  0  0  0  0  0  0  0  0  0  0  0
   -4.0827   -2.2271   -0.7444 H   0  0  0  0  0  0  0  0  0  0  0  0
   -4.6231   -3.6044    0.1755 H   0  0  0  0  0  0  0  0  0  0  0  0
   -2.4892   -4.2277    0.8525 H   0  0  0  0  0  0  0  0  0  0  0  0
   -2.5857   -4.1123   -1.4252 H   0  0  0  0  0  0  0  0  0  0  0  0
   -1.5892   -2.5313    2.1419 H   0  0  0  0  0  0  0  0  0  0  0  0
   -0.5258   -2.4527    0.7430 H   0  0  0  0  0  0  0  0  0  0  0  0
   -1.2634   -0.2109    1.4710 H   0  0  0  0  0  0  0  0  0  0  0  0
   -1.7072   -1.2777   -1.1087 H   0  0  0  0  0  0  0  0  0  0  0  0
   -1.0555    0.8850   -1.8977 H   0  0  0  0  0  0  0  0  0  0  0  0
   -1.1465    1.4945   -0.2649 H   0  0  0  0  0  0  0  0  0  0  0  0
    0.4415   -1.4176   -2.1347 H   0  0  0  0  0  0  0  0  0  0  0  0
    2.7890   -2.1141   -1.7972 H   0  0  0  0  0  0  0  0  0  0  0  0
    7.0637   -0.8716    0.9238 H   0  0  0  0  0  0  0  0  0  0  0  0
    7.1265   -1.5483   -0.7107 H   0  0  0  0  0  0  0  0  0  0  0  0
    9.0124    0.1187   -0.0982 H   0  0  0  0  0  0  0  0  0  0  0  0
    8.1952    0.4020   -1.6243 H   0  0  0  0  0  0  0  0  0  0  0  0
    7.6046    1.7524    0.9086 H   0  0  0  0  0  0  0  0  0  0  0  0
    6.5982    2.8916   -1.5015 H   0  0  0  0  0  0  0  0  0  0  0  0
    5.8793    2.7553    0.0910 H   0  0  0  0  0  0  0  0  0  0  0  0
    4.4662    1.4163   -1.2511 H   0  0  0  0  0  0  0  0  0  0  0  0
    5.7869    0.7681   -2.2054 H   0  0  0  0  0  0  0  0  0  0  0  0
    3.2766    0.9446    1.1969 H   0  0  0  0  0  0  0  0  0  0  0  0
    0.9275    1.6450    0.8742 H   0  0  0  0  0  0  0  0  0  0  0  0
  1  2  1  0
  2  3  2  0
  3  4  1  0
  4  5  2  0
  5  6  1  0
  6  7  2  0
  7  8  1  0
  8  9  2  0
  9 10  1  0
 10 11  1  0
 11 12  1  0
 12 13  1  0
 13 14  1  0
 14 15  1  0
 14 16  1  0
 16 17  1  0
 17 18  1  0
 18 19  1  0
 19 20  1  0
 20 21  2  0
 21 22  1  0
 22 23  2  0
 23 24  1  0
 24 25  2  0
 24 26  1  0
 26 27  1  0
 27 28  1  0
 28 29  1  0
 29 30  1  0
 30 31  1  0
 23 32  1  0
 32 33  2  0
  7  2  1  0
 17 11  1  0
 33 20  1  0
 10  6  1  0
 31 26  1  0
  1 34  1  0
  1 35  1  0
  4 36  1  0
  9 37  1  0
 11 38  1  1
 12 39  1  0
 12 40  1  0
 13 41  1  0
 13 42  1  0
 14 43  1  1
 15 44  1  0
 16 45  1  0
 16 46  1  0
 17 47  1  0
 18 48  1  0
 19 49  1  0
 19 50  1  0
 21 51  1  0
 22 52  1  0
 27 53  1  0
 27 54  1  0
 28 55  1  0
 28 56  1  0
 29 57  1  0
 30 58  1  0
 30 59  1  0
 31 60  1  0
 31 61  1  0
 32 62  1  0
 33 63  1  0
M  END
$$$$
