
     RDKit          3D

 62 66  0  0  0  0  0  0  0  0999 V2000
    5.1429    4.2475    2.6431 N   0  0  0  0  0  0  0  0  0  0  0  0
    4.9778    2.9623    2.1374 C   0  0  0  0  0  0  0  0  0  0  0  0
    5.6298    1.9491    2.7470 N   0  0  0  0  0  0  0  0  0  0  0  0
    5.4767    0.7035    2.2479 C   0  0  0  0  0  0  0  0  0  0  0  0
    4.7316    0.3072    1.1987 N   0  0  0  0  0  0  0  0  0  0  0  0
    4.0768    1.3408    0.6450 C   0  0  0  0  0  0  0  0  0  0  0  0
    4.1449    2.6682    1.0433 C   0  0  0  0  0  0  0  0  0  0  0  0
    3.3399    3.4657    0.2562 N   0  0  0  0  0  0  0  0  0  0  0  0
    2.8031    2.6364   -0.6110 C   0  0  0  0  0  0  0  0  0  0  0  0
    3.2120    1.3367   -0.4171 N   0  0  0  0  0  0  0  0  0  0  0  0
    2.7607    0.2189   -1.2372 C   0  0  1  0  0  0  0  0  0  0  0  0
    3.7847   -0.9152   -1.4331 C   0  0  0  0  0  0  0  0  0  0  0  0
    3.2787   -1.9392   -2.4531 C   0  0  0  0  0  0  0  0  0  0  0  0
    1.8919   -2.4805   -2.0982 C   0  0  1  0  0  0  0  0  0  0  0  0
    1.9737   -3.3009   -0.9332 O   0  0  0  0  0  0  0  0  0  0  0  0
    0.8889   -1.3493   -1.8463 C   0  0  0  0  0  0  0  0  0  0  0  0
    1.3674   -0.3203   -0.7942 C   0  0  0  0  0  0  0  0  0  0  0  0
    1.4431   -0.9108    0.5489 N   0  0  0  0  0  0  0  0  0  0  0  0
    0.3423   -0.5761    1.4458 C   0  0  0  0  0  0  0  0  0  0  0  0
   -0.9886   -1.1739    1.0579 C   0  0  0  0  0  0  0  0  0  0  0  0
   -1.1756   -2.5674    1.0740 C   0  0  0  0  0  0  0  0  0  0  0  0
   -2.3982   -3.1232    0.7026 C   0  0  0  0  0  0  0  0  0  0  0  0
   -3.4316   -2.2796    0.3266 C   0  0  0  0  0  0  0  0  0  0  0  0
   -4.6420   -2.8175   -0.0251 O   0  0  0  0  0  0  0  0  0  0  0  0
   -3.2926   -0.8824    0.3094 C   0  0  0  0  0  0  0  0  0  0  0  0
   -4.4070   -0.1140   -0.0999 N   0  0  0  0  0  0  0  0  0  0  0  0
   -4.7447    0.9985    0.8122 C   0  0  0  0  0  0  0  0  0  0  0  0
   -6.1089    1.6103    0.3999 C   0  0  0  0  0  0  0  0  0  0  0  0
   -6.4012    1.6198   -1.0540 N   0  0  0  0  0  0  0  0  0  0  0  0
   -5.1405    1.5706   -1.8169 C   0  0  0  0  0  0  0  0  0  0  0  0
   -4.2807    0.3144   -1.5189 C   0  0  0  0  0  0  0  0  0  0  0  0
   -2.0569   -0.3406    0.6772 C   0  0  0  0  0  0  0  0  0  0  0  0
    5.4223    4.2303    3.6145 H   0  0  0  0  0  0  0  0  0  0  0  0
    4.3889    4.8729    2.3820 H   0  0  0  0  0  0  0  0  0  0  0  0
    6.0222   -0.0807    2.7636 H   0  0  0  0  0  0  0  0  0  0  0  0
    2.1124    2.9154   -1.3961 H   0  0  0  0  0  0  0  0  0  0  0  0
    2.6236    0.6679   -2.2339 H   0  0  0  0  0  0  0  0  0  0  0  0
    4.7407   -0.5034   -1.7797 H   0  0  0  0  0  0  0  0  0  0  0  0
    3.9885   -1.4329   -0.4892 H   0  0  0  0  0  0  0  0  0  0  0  0
    3.2395   -1.4698   -3.4438 H   0  0  0  0  0  0  0  0  0  0  0  0
    4.0007   -2.7621   -2.5103 H   0  0  0  0  0  0  0  0  0  0  0  0
    1.5241   -3.1130   -2.9139 H   0  0  0  0  0  0  0  0  0  0  0  0
    2.6086   -4.0143   -1.1208 H   0  0  0  0  0  0  0  0  0  0  0  0
    0.7105   -0.8217   -2.7922 H   0  0  0  0  0  0  0  0  0  0  0  0
   -0.0734   -1.7753   -1.5448 H   0  0  0  0  0  0  0  0  0  0  0  0
    0.6624    0.5218   -0.7934 H   0  0  0  0  0  0  0  0  0  0  0  0
    1.5418   -1.9301    0.4707 H   0  0  0  0  0  0  0  0  0  0  0  0
    0.2656    0.5139    1.5471 H   0  0  0  0  0  0  0  0  0  0  0  0
    0.5940   -0.9388    2.4500 H   0  0  0  0  0  0  0  0  0  0  0  0
   -0.3596   -3.2256    1.3657 H   0  0  0  0  0  0  0  0  0  0  0  0
   -2.5447   -4.1982    0.7094 H   0  0  0  0  0  0  0  0  0  0  0  0
   -5.1926   -2.0182   -0.1660 H   0  0  0  0  0  0  0  0  0  0  0  0
   -3.9755    1.7813    0.7726 H   0  0  0  0  0  0  0  0  0  0  0  0
   -4.8141    0.6417    1.8479 H   0  0  0  0  0  0  0  0  0  0  0  0
   -6.9140    1.0510    0.8938 H   0  0  0  0  0  0  0  0  0  0  0  0
   -6.1684    2.6364    0.7823 H   0  0  0  0  0  0  0  0  0  0  0  0
   -6.9019    0.7517   -1.2564 H   0  0  0  0  0  0  0  0  0  0  0  0
   -4.5590    2.4756   -1.5971 H   0  0  0  0  0  0  0  0  0  0  0  0
   -5.3640    1.6070   -2.8895 H   0  0  0  0  0  0  0  0  0  0  0  0
   -3.2408    0.5354   -1.7924 H   0  0  0  0  0  0  0  0  0  0  0  0
   -4.6271   -0.5125   -2.1512 H   0  0  0  0  0  0  0  0  0  0  0  0
   -1.9089    0.7351    0.6574 H   0  0  0  0  0  0  0  0  0  0  0  0
  1  2  1  0
  2  3  2  0
  3  4  1  0
  4  5  2  0
  5  6  1  0
  6  7  2  0
  7  8  1  0
  8  9  2  0
  9 10  1  0
 10 11  1  0
 11 12  1  0
 12 13  1  0
 13 14  1  0
 14 15  1  0
 14 16  1  0
 16 17  1  0
 17 18  1  0
 18 19  1  0
 19 20  1  0
 20 21  2  0
 21 22  1  0
 22 23  2  0
 23 24  1  0
 23 25  1  0
 25 26  1  0
 26 27  1  0
 27 28  1  0
 28 29  1  0
 29 30  1  0
 30 31  1  0
 25 32  2  0
  7  2  1  0
 17 11  1  0
 32 20  1  0
 10  6  1  0
 31 26  1  0
  1 33  1  0
  1 34  1  0
  4 35  1  0
  9 36  1  0
 11 37  1  6
 12 38  1  0
 12 39  1  0
 13 40  1  0
 13 41  1  0
 14 42  1  6
 15 43  1  0
 16 44  1  0
 16 45  1  0
 17 46  1  0
 18 47  1  0
 19 48  1  0
 19 49  1  0
 21 50  1  0
 22 51  1  0
 24 52  1  0
 27 53  1  0
 27 54  1  0
 28 55  1  0
 28 56  1  0
 29 57  1  0
 30 58  1  0
 30 59  1  0
 31 60  1  0
 31 61  1  0
 32 62  1  0
M  END
$$$$
