
     RDKit          3D

 64 68  0  0  0  0  0  0  0  0999 V2000
   -8.7427   -0.2965    0.0426 C   0  0  0  0  0  0  0  0  0  0  0  0
   -8.0176    0.8737    0.4163 O   0  0  0  0  0  0  0  0  0  0  0  0
   -6.6490    0.6984    0.3446 C   0  0  0  0  0  0  0  0  0  0  0  0
   -5.9267    0.0101    1.2431 C   0  0  0  0  0  0  0  0  0  0  0  0
   -6.3728   -0.7408    2.4034 C   0  0  0  0  0  0  0  0  0  0  0  0
   -5.2638   -1.3007    2.9153 C   0  0  0  0  0  0  0  0  0  0  0  0
   -4.1327   -1.0032    2.1680 N   0  0  0  0  0  0  0  0  0  0  0  0
   -4.4607   -0.0896    1.1727 C   0  0  0  0  0  0  0  0  0  0  0  0
   -3.7205    0.7053    0.3737 C   0  0  0  0  0  0  0  0  0  0  0  0
   -2.3284    0.6513    0.2852 N   0  0  0  0  0  0  0  0  0  0  0  0
   -1.5277   -0.4608    0.7478 C   0  0  0  0  0  0  0  0  0  0  0  0
   -0.2298   -0.3300   -0.0236 C   0  0  0  0  0  0  0  0  0  0  0  0
   -0.0602    1.1798   -0.1335 C   0  0  0  0  0  0  0  0  0  0  0  0
    0.7964    1.6382   -1.3107 C   0  0  0  0  0  0  0  0  0  0  0  0
    2.2616    1.3243   -1.1199 C   0  0  0  0  0  0  0  0  0  0  0  0
    3.0795    2.1974   -0.3856 C   0  0  0  0  0  0  0  0  0  0  0  0
    4.4372    1.9184   -0.2090 C   0  0  0  0  0  0  0  0  0  0  0  0
    4.9838    0.7495   -0.7475 C   0  0  0  0  0  0  0  0  0  0  0  0
    6.4291    0.5036   -0.5908 C   0  0  0  0  0  0  0  0  0  0  0  0
    7.1918    1.4095   -0.9237 O   0  0  0  0  0  0  0  0  0  0  0  0
    6.8700   -0.7136   -0.0712 N   0  0  0  0  0  0  0  0  0  0  0  0
    6.0630   -1.5440    0.8325 C   0  0  0  0  0  0  0  0  0  0  0  0
    6.5584   -2.9931    0.8553 C   0  0  0  0  0  0  0  0  0  0  0  0
    7.9575   -3.0550    1.1647 O   0  0  0  0  0  0  0  0  0  0  0  0
    8.7166   -2.3510    0.1687 C   0  0  0  0  0  0  0  0  0  0  0  0
    8.3153   -0.8752    0.1072 C   0  0  0  0  0  0  0  0  0  0  0  0
    4.1791   -0.1114   -1.4900 C   0  0  0  0  0  0  0  0  0  0  0  0
    4.6838   -1.2254   -2.0394 F   0  0  0  0  0  0  0  0  0  0  0  0
    2.8247    0.1648   -1.6717 C   0  0  0  0  0  0  0  0  0  0  0  0
   -1.4984    1.6500   -0.2638 C   0  0  0  0  0  0  0  0  0  0  0  0
   -1.8176    2.7411   -0.7106 O   0  0  0  0  0  0  0  0  0  0  0  0
   -4.4585    1.7527   -0.4577 C   0  0  0  0  0  0  0  0  0  0  0  0
   -5.9507    1.4491   -0.7710 C   0  0  0  0  0  0  0  0  0  0  0  0
   -6.0650    0.6689   -2.0878 C   0  0  0  0  0  0  0  0  0  0  0  0
   -9.7973   -0.0193   -0.0502 H   0  0  0  0  0  0  0  0  0  0  0  0
   -8.6681   -1.0722    0.8087 H   0  0  0  0  0  0  0  0  0  0  0  0
   -8.4094   -0.6906   -0.9220 H   0  0  0  0  0  0  0  0  0  0  0  0
   -7.3741   -0.7852    2.7944 H   0  0  0  0  0  0  0  0  0  0  0  0
   -5.1718   -1.8909    3.8165 H   0  0  0  0  0  0  0  0  0  0  0  0
   -3.2836   -0.8213    2.6876 H   0  0  0  0  0  0  0  0  0  0  0  0
   -1.3495   -0.3452    1.8223 H   0  0  0  0  0  0  0  0  0  0  0  0
   -2.0056   -1.4220    0.5370 H   0  0  0  0  0  0  0  0  0  0  0  0
   -0.3410   -0.7836   -1.0167 H   0  0  0  0  0  0  0  0  0  0  0  0
    0.6051   -0.8209    0.4850 H   0  0  0  0  0  0  0  0  0  0  0  0
    0.3245    1.5852    0.8118 H   0  0  0  0  0  0  0  0  0  0  0  0
    0.6912    2.7217   -1.4568 H   0  0  0  0  0  0  0  0  0  0  0  0
    0.4382    1.1904   -2.2473 H   0  0  0  0  0  0  0  0  0  0  0  0
    2.6679    3.1135    0.0368 H   0  0  0  0  0  0  0  0  0  0  0  0
    5.0704    2.6160    0.3358 H   0  0  0  0  0  0  0  0  0  0  0  0
    6.1678   -1.0999    1.8305 H   0  0  0  0  0  0  0  0  0  0  0  0
    5.0035   -1.5177    0.5732 H   0  0  0  0  0  0  0  0  0  0  0  0
    6.3834   -3.4860   -0.1085 H   0  0  0  0  0  0  0  0  0  0  0  0
    6.0209   -3.5584    1.6236 H   0  0  0  0  0  0  0  0  0  0  0  0
    8.5683   -2.8399   -0.8017 H   0  0  0  0  0  0  0  0  0  0  0  0
    9.7755   -2.4402    0.4304 H   0  0  0  0  0  0  0  0  0  0  0  0
    8.5745   -0.3785    1.0507 H   0  0  0  0  0  0  0  0  0  0  0  0
    8.8567   -0.3732   -0.7018 H   0  0  0  0  0  0  0  0  0  0  0  0
    2.2243   -0.5267   -2.2567 H   0  0  0  0  0  0  0  0  0  0  0  0
   -4.4063    2.7036    0.0902 H   0  0  0  0  0  0  0  0  0  0  0  0
   -3.9485    1.9075   -1.4150 H   0  0  0  0  0  0  0  0  0  0  0  0
   -6.4539    2.4148   -0.9140 H   0  0  0  0  0  0  0  0  0  0  0  0
   -7.1124    0.5400   -2.3829 H   0  0  0  0  0  0  0  0  0  0  0  0
   -5.5689    1.2082   -2.9016 H   0  0  0  0  0  0  0  0  0  0  0  0
   -5.6068   -0.3246   -2.0118 H   0  0  0  0  0  0  0  0  0  0  0  0
  1  2  1  0
  2  3  1  0
  3  4  2  0
  4  5  1  0
  5  6  2  0
  6  7  1  0
  7  8  1  0
  8  9  2  0
  9 10  1  0
 10 11  1  0
 11 12  1  0
 12 13  1  0
 13 14  1  0
 14 15  1  0
 15 16  2  0
 16 17  1  0
 17 18  2  0
 18 19  1  0
 19 20  2  0
 19 21  1  0
 21 22  1  0
 22 23  1  0
 23 24  1  0
 24 25  1  0
 25 26  1  0
 18 27  1  0
 27 28  1  0
 27 29  2  0
 13 30  1  0
 30 31  2  0
  9 32  1  0
 32 33  1  0
 33 34  1  0
 33  3  1  0
  8  4  1  0
 30 10  1  0
 29 15  1  0
 26 21  1  0
  1 35  1  0
  1 36  1  0
  1 37  1  0
  5 38  1  0
  6 39  1  0
  7 40  1  0
 11 41  1  0
 11 42  1  0
 12 43  1  0
 12 44  1  0
 13 45  1  0
 14 46  1  0
 14 47  1  0
 16 48  1  0
 17 49  1  0
 22 50  1  0
 22 51  1  0
 23 52  1  0
 23 53  1  0
 25 54  1  0
 25 55  1  0
 26 56  1  0
 26 57  1  0
 29 58  1  0
 32 59  1  0
 32 60  1  0
 33 61  1  0
 34 62  1  0
 34 63  1  0
 34 64  1  0
M  END
$$$$
