
     RDKit          3D

 39 41  0  0  0  0  0  0  0  0999 V2000
   -4.9776    2.6562    1.5157 C   0  0  0  0  0  0  0  0  0  0  0  0
   -4.1038    1.5365    1.3964 O   0  0  0  0  0  0  0  0  0  0  0  0
   -4.5258    0.6388    0.4463 C   0  0  0  0  0  0  0  0  0  0  0  0
   -3.7066   -0.2886   -0.0866 C   0  0  0  0  0  0  0  0  0  0  0  0
   -2.2378   -0.3036    0.3805 C   0  0  0  0  0  0  0  0  0  0  0  0
   -1.3729   -1.1988   -0.4449 C   0  0  0  0  0  0  0  0  0  0  0  0
    0.0333   -1.4111   -0.4710 C   0  0  0  0  0  0  0  0  0  0  0  0
    1.0863   -0.8192    0.3316 C   0  0  0  0  0  0  0  0  0  0  0  0
    0.9794   -0.7387    1.7146 C   0  0  0  0  0  0  0  0  0  0  0  0
    1.9225   -0.1934    2.5174 N   0  0  0  0  0  0  0  0  0  0  0  0
    3.0329    0.2983    1.9098 C   0  0  0  0  0  0  0  0  0  0  0  0
    3.2463    0.2709    0.5340 C   0  0  0  0  0  0  0  0  0  0  0  0
    4.3874    0.7801   -0.1230 N   0  0  0  0  0  0  0  0  0  0  0  0
    5.4861    1.3724    0.4697 C   0  0  0  0  0  0  0  0  0  0  0  0
    6.5256    1.8017   -0.5352 C   0  0  0  0  0  0  0  0  0  0  0  0
    5.6669    1.5337    1.6708 O   0  0  0  0  0  0  0  0  0  0  0  0
    2.2455   -0.3026   -0.2576 C   0  0  0  0  0  0  0  0  0  0  0  0
    0.2704   -2.3581   -1.4553 C   0  0  0  0  0  0  0  0  0  0  0  0
   -0.9336   -2.7239   -2.0131 N   0  0  0  0  0  0  0  0  0  0  0  0
   -1.9228   -2.0129   -1.4049 C   0  0  0  0  0  0  0  0  0  0  0  0
   -3.2837   -2.1160   -1.7382 C   0  0  0  0  0  0  0  0  0  0  0  0
   -4.1423   -1.2862   -1.1034 C   0  0  0  0  0  0  0  0  0  0  0  0
   -5.9735   -1.4363   -1.5422 Br  0  0  0  0  0  0  0  0  0  0  0  0
   -4.5472    3.3464    2.2470 H   0  0  0  0  0  0  0  0  0  0  0  0
   -5.9626    2.3424    1.8776 H   0  0  0  0  0  0  0  0  0  0  0  0
   -5.0708    3.1814    0.5590 H   0  0  0  0  0  0  0  0  0  0  0  0
   -5.5727    0.7409    0.1939 H   0  0  0  0  0  0  0  0  0  0  0  0
   -1.8245    0.7122    0.3422 H   0  0  0  0  0  0  0  0  0  0  0  0
   -2.2067   -0.6490    1.4215 H   0  0  0  0  0  0  0  0  0  0  0  0
    0.1138   -1.1316    2.2406 H   0  0  0  0  0  0  0  0  0  0  0  0
    3.7504    0.7237    2.6036 H   0  0  0  0  0  0  0  0  0  0  0  0
    4.3975    0.6946   -1.1316 H   0  0  0  0  0  0  0  0  0  0  0  0
    7.2072    0.9691   -0.7273 H   0  0  0  0  0  0  0  0  0  0  0  0
    7.0883    2.6494   -0.1336 H   0  0  0  0  0  0  0  0  0  0  0  0
    6.0610    2.1189   -1.4732 H   0  0  0  0  0  0  0  0  0  0  0  0
    2.3530   -0.3408   -1.3379 H   0  0  0  0  0  0  0  0  0  0  0  0
    1.1874   -2.8182   -1.7995 H   0  0  0  0  0  0  0  0  0  0  0  0
   -1.0540   -3.4043   -2.7522 H   0  0  0  0  0  0  0  0  0  0  0  0
   -3.6223   -2.8343   -2.4773 H   0  0  0  0  0  0  0  0  0  0  0  0
  1  2  1  0
  2  3  1  0
  3  4  2  3
  4  5  1  0
  5  6  1  0
  6  7  1  0
  7  8  1  0
  8  9  2  0
  9 10  1  0
 10 11  2  0
 11 12  1  0
 12 13  1  0
 13 14  1  0
 14 15  1  0
 14 16  2  0
 12 17  2  0
  7 18  2  0
 18 19  1  0
 19 20  1  0
 20 21  1  0
 21 22  2  0
 22 23  1  0
 22  4  1  0
 20  6  2  0
 17  8  1  0
  1 24  1  0
  1 25  1  0
  1 26  1  0
  3 27  1  0
  5 28  1  0
  5 29  1  0
  9 30  1  0
 11 31  1  0
 13 32  1  0
 15 33  1  0
 15 34  1  0
 15 35  1  0
 17 36  1  0
 18 37  1  0
 19 38  1  0
 21 39  1  0
M  END
$$$$
