
     RDKit          3D

 52 55  0  0  0  0  0  0  0  0999 V2000
   -4.3909   -3.1247    1.7294 O   0  0  0  0  0  0  0  0  0  0  0  0
   -4.9615   -2.0397    1.7841 C   0  0  0  0  0  0  0  0  0  0  0  0
   -4.4434   -0.8689    2.6118 C   0  0  0  0  0  0  0  0  0  0  0  0
   -3.1232   -0.3905    2.0873 C   0  0  0  0  0  0  0  0  0  0  0  0
   -2.8161    0.3305    0.9948 C   0  0  0  0  0  0  0  0  0  0  0  0
   -1.4265    0.7135    0.7457 C   0  0  0  0  0  0  0  0  0  0  0  0
   -1.4179    1.4542   -0.3736 C   0  0  0  0  0  0  0  0  0  0  0  0
   -0.4177    2.0685   -1.0552 O   0  0  0  0  0  0  0  0  0  0  0  0
    0.8931    1.9076   -0.5049 C   0  0  0  0  0  0  0  0  0  0  0  0
    1.8734    2.6435   -1.4147 C   0  0  0  0  0  0  0  0  0  0  0  0
    3.3004    2.6590   -0.8702 C   0  0  0  0  0  0  0  0  0  0  0  0
    3.8366    1.3054   -0.7502 N   0  0  0  0  0  0  0  0  0  0  0  0
    5.2061    1.3210   -0.2368 C   0  0  0  0  0  0  0  0  0  0  0  0
    5.7646   -0.0813   -0.1617 C   0  0  0  0  0  0  0  0  0  0  0  0
    6.7937   -0.4905   -1.0245 C   0  0  0  0  0  0  0  0  0  0  0  0
    7.3014   -1.7890   -0.9508 C   0  0  0  0  0  0  0  0  0  0  0  0
    6.7793   -2.6787   -0.0194 C   0  0  0  0  0  0  0  0  0  0  0  0
    7.2685   -3.9239    0.0487 F   0  0  0  0  0  0  0  0  0  0  0  0
    5.7569   -2.2968    0.8400 C   0  0  0  0  0  0  0  0  0  0  0  0
    5.2486   -0.9993    0.7687 C   0  0  0  0  0  0  0  0  0  0  0  0
   -2.7581    1.5606   -0.8946 C   0  0  0  0  0  0  0  0  0  0  0  0
   -3.6176    0.8802   -0.1067 C   0  0  0  0  0  0  0  0  0  0  0  0
   -5.0791    0.7622   -0.3947 C   0  0  0  0  0  0  0  0  0  0  0  0
   -5.4400   -0.5242   -0.9841 N   0  0  0  0  0  0  0  0  0  0  0  0
   -5.3117   -0.7151   -2.3163 N   0  0  0  0  0  0  0  0  0  0  0  0
   -5.4887   -2.0323   -2.4610 C   0  0  0  0  0  0  0  0  0  0  0  0
   -5.7944   -2.6757   -1.2472 C   0  0  0  0  0  0  0  0  0  0  0  0
   -5.8309   -1.6632   -0.3200 C   0  0  0  0  0  0  0  0  0  0  0  0
   -6.0928   -1.6961    1.0434 N   0  0  0  0  0  0  0  0  0  0  0  0
   -4.3308   -1.2200    3.6442 H   0  0  0  0  0  0  0  0  0  0  0  0
   -5.1555   -0.0387    2.6525 H   0  0  0  0  0  0  0  0  0  0  0  0
   -2.2954   -0.6891    2.7336 H   0  0  0  0  0  0  0  0  0  0  0  0
   -0.5837    0.4452    1.3608 H   0  0  0  0  0  0  0  0  0  0  0  0
    0.9260    2.3392    0.5029 H   0  0  0  0  0  0  0  0  0  0  0  0
    1.1465    0.8418   -0.4589 H   0  0  0  0  0  0  0  0  0  0  0  0
    1.8493    2.1947   -2.4162 H   0  0  0  0  0  0  0  0  0  0  0  0
    1.5307    3.6775   -1.5494 H   0  0  0  0  0  0  0  0  0  0  0  0
    3.9257    3.2527   -1.5479 H   0  0  0  0  0  0  0  0  0  0  0  0
    3.3063    3.1546    0.1079 H   0  0  0  0  0  0  0  0  0  0  0  0
    3.8365    0.8503   -1.6639 H   0  0  0  0  0  0  0  0  0  0  0  0
    5.8473    1.9392   -0.8773 H   0  0  0  0  0  0  0  0  0  0  0  0
    5.2361    1.7597    0.7684 H   0  0  0  0  0  0  0  0  0  0  0  0
    7.2052    0.1982   -1.7588 H   0  0  0  0  0  0  0  0  0  0  0  0
    8.0975   -2.1125   -1.6134 H   0  0  0  0  0  0  0  0  0  0  0  0
    5.3596   -3.0098    1.5548 H   0  0  0  0  0  0  0  0  0  0  0  0
    4.4398   -0.7020    1.4333 H   0  0  0  0  0  0  0  0  0  0  0  0
   -2.9967    2.0799   -1.8110 H   0  0  0  0  0  0  0  0  0  0  0  0
   -5.6784    0.9228    0.5054 H   0  0  0  0  0  0  0  0  0  0  0  0
   -5.4019    1.5275   -1.1125 H   0  0  0  0  0  0  0  0  0  0  0  0
   -5.3885   -2.4697   -3.4461 H   0  0  0  0  0  0  0  0  0  0  0  0
   -5.9835   -3.7251   -1.0736 H   0  0  0  0  0  0  0  0  0  0  0  0
   -6.5044   -0.8322    1.3756 H   0  0  0  0  0  0  0  0  0  0  0  0
  1  2  2  0
  2  3  1  0
  3  4  1  0
  4  5  2  3
  5  6  1  0
  6  7  2  0
  7  8  1  0
  8  9  1  0
  9 10  1  0
 10 11  1  0
 11 12  1  0
 12 13  1  0
 13 14  1  0
 14 15  2  0
 15 16  1  0
 16 17  2  0
 17 18  1  0
 17 19  1  0
 19 20  2  0
  7 21  1  0
 21 22  2  0
 22 23  1  0
 23 24  1  0
 24 25  1  0
 25 26  2  0
 26 27  1  0
 27 28  2  0
 28 29  1  0
 29  2  1  0
 22  5  1  0
 28 24  1  0
 20 14  1  0
  3 30  1  0
  3 31  1  0
  4 32  1  0
  6 33  1  0
  9 34  1  0
  9 35  1  0
 10 36  1  0
 10 37  1  0
 11 38  1  0
 11 39  1  0
 12 40  1  0
 13 41  1  0
 13 42  1  0
 15 43  1  0
 16 44  1  0
 19 45  1  0
 20 46  1  0
 21 47  1  0
 23 48  1  0
 23 49  1  0
 26 50  1  0
 27 51  1  0
 29 52  1  0
M  END
$$$$
