
     RDKit          3D

 38 40  0  0  0  0  0  0  0  0999 V2000
    6.8632    1.4634   -2.5285 O   0  0  0  0  0  0  0  0  0  0  0  0
    7.2141    0.5109   -1.5257 C   0  0  0  0  0  0  0  0  0  0  0  0
    6.0452   -0.4350   -1.2655 C   0  0  0  0  0  0  0  0  0  0  0  0
    4.9721    0.3437   -0.7275 O   0  0  0  0  0  0  0  0  0  0  0  0
    3.8045   -0.3061   -0.4393 C   0  0  0  0  0  0  0  0  0  0  0  0
    3.5652   -1.6668   -0.6089 C   0  0  0  0  0  0  0  0  0  0  0  0
    2.3159   -2.2081   -0.2688 C   0  0  0  0  0  0  0  0  0  0  0  0
    1.2783   -1.4130    0.2514 C   0  0  0  0  0  0  0  0  0  0  0  0
    0.0516   -2.0334    0.5525 N   0  0  0  0  0  0  0  0  0  0  0  0
   -1.1119   -1.4722    0.9649 C   0  0  0  0  0  0  0  0  0  0  0  0
   -1.4052   -0.1951    1.0985 N   0  0  0  0  0  0  0  0  0  0  0  0
   -2.6949    0.0246    1.5379 N   0  0  0  0  0  0  0  0  0  0  0  0
   -3.3502   -1.0997    1.7135 C   0  0  0  0  0  0  0  0  0  0  0  0
   -5.0087   -1.1610    2.2733 S   0  0  0  0  0  0  0  0  0  0  0  0
   -5.6359    0.2595    1.3801 C   0  0  0  0  0  0  0  0  0  0  0  0
   -5.8667    1.4362    2.1098 C   0  0  0  0  0  0  0  0  0  0  0  0
   -6.3592    2.5813    1.4797 C   0  0  0  0  0  0  0  0  0  0  0  0
   -6.6331    2.5630    0.1146 C   0  0  0  0  0  0  0  0  0  0  0  0
   -6.4216    1.3970   -0.6213 C   0  0  0  0  0  0  0  0  0  0  0  0
   -5.9280    0.2474    0.0053 C   0  0  0  0  0  0  0  0  0  0  0  0
   -5.7152   -1.1624   -0.9780 Cl  0  0  0  0  0  0  0  0  0  0  0  0
   -2.4371   -2.5067    1.3795 S   0  0  0  0  0  0  0  0  0  0  0  0
    1.5308   -0.0485    0.4061 C   0  0  0  0  0  0  0  0  0  0  0  0
    2.7750    0.4882    0.0688 C   0  0  0  0  0  0  0  0  0  0  0  0
    2.9728    1.8049    0.2452 F   0  0  0  0  0  0  0  0  0  0  0  0
    6.0303    1.8751   -2.2272 H   0  0  0  0  0  0  0  0  0  0  0  0
    8.0887   -0.0452   -1.8760 H   0  0  0  0  0  0  0  0  0  0  0  0
    7.4822    1.0634   -0.6198 H   0  0  0  0  0  0  0  0  0  0  0  0
    5.7305   -0.8908   -2.2113 H   0  0  0  0  0  0  0  0  0  0  0  0
    6.3527   -1.2022   -0.5462 H   0  0  0  0  0  0  0  0  0  0  0  0
    4.3200   -2.3381   -1.0041 H   0  0  0  0  0  0  0  0  0  0  0  0
    2.1623   -3.2748   -0.4230 H   0  0  0  0  0  0  0  0  0  0  0  0
    0.0661   -3.0434    0.4908 H   0  0  0  0  0  0  0  0  0  0  0  0
   -5.6545    1.4748    3.1765 H   0  0  0  0  0  0  0  0  0  0  0  0
   -6.5243    3.4889    2.0561 H   0  0  0  0  0  0  0  0  0  0  0  0
   -7.0137    3.4550   -0.3768 H   0  0  0  0  0  0  0  0  0  0  0  0
   -6.6474    1.3887   -1.6851 H   0  0  0  0  0  0  0  0  0  0  0  0
    0.7860    0.6363    0.7963 H   0  0  0  0  0  0  0  0  0  0  0  0
  1  2  1  0
  2  3  1  0
  3  4  1  0
  4  5  1  0
  5  6  2  0
  6  7  1  0
  7  8  2  0
  8  9  1  0
  9 10  1  0
 10 11  2  0
 11 12  1  0
 12 13  2  0
 13 14  1  0
 14 15  1  0
 15 16  2  0
 16 17  1  0
 17 18  2  0
 18 19  1  0
 19 20  2  0
 20 21  1  0
 13 22  1  0
  8 23  1  0
 23 24  2  0
 24 25  1  0
 24  5  1  0
 22 10  1  0
 20 15  1  0
  1 26  1  0
  2 27  1  0
  2 28  1  0
  3 29  1  0
  3 30  1  0
  6 31  1  0
  7 32  1  0
  9 33  1  0
 16 34  1  0
 17 35  1  0
 18 36  1  0
 19 37  1  0
 23 38  1  0
M  END
$$$$
