
     RDKit          3D

 53 55  0  0  0  0  0  0  0  0999 V2000
    4.3146    3.7743    2.3368 C   0  0  0  0  0  0  0  0  0  0  0  0
    3.9361    2.7800    1.2552 C   0  0  0  0  0  0  0  0  0  0  0  0
    4.0764    1.4609    1.7946 O   0  0  0  0  0  0  0  0  0  0  0  0
    3.6438    0.5067    0.8906 C   0  0  0  0  0  0  0  0  0  0  0  0
    2.4808   -0.1328    1.0880 C   0  0  0  0  0  0  0  0  0  0  0  0
    1.9242   -1.1375    0.1825 C   0  0  0  0  0  0  0  0  0  0  0  0
    0.5570   -0.9848   -0.0342 N   0  0  0  0  0  0  0  0  0  0  0  0
   -0.4439   -1.6013    0.7771 C   0  0  0  0  0  0  0  0  0  0  0  0
   -0.2150   -2.0243    2.0889 C   0  0  0  0  0  0  0  0  0  0  0  0
   -1.2678   -2.5404    2.8319 C   0  0  0  0  0  0  0  0  0  0  0  0
   -1.0653   -2.9595    4.0870 F   0  0  0  0  0  0  0  0  0  0  0  0
   -2.5277   -2.6106    2.2646 C   0  0  0  0  0  0  0  0  0  0  0  0
   -2.8079   -2.1991    1.0076 N   0  0  0  0  0  0  0  0  0  0  0  0
   -1.7686   -1.7000    0.2995 C   0  0  0  0  0  0  0  0  0  0  0  0
   -1.9706   -1.2643   -1.0001 O   0  0  0  0  0  0  0  0  0  0  0  0
   -3.3203   -1.2727   -1.4689 C   0  0  0  0  0  0  0  0  0  0  0  0
   -3.9404    0.1322   -1.4530 C   0  0  0  0  0  0  0  0  0  0  0  0
   -4.1197    0.6985   -0.0430 C   0  0  0  0  0  0  0  0  0  0  0  0
   -4.8283    2.0534   -0.0894 C   0  0  0  0  0  0  0  0  0  0  0  0
   -4.6271    2.7571   -1.3175 O   0  0  0  0  0  0  0  0  0  0  0  0
   -3.3181    2.5715   -1.8425 C   0  0  0  0  0  0  0  0  0  0  0  0
   -3.1359    1.1290   -2.3083 C   0  0  0  0  0  0  0  0  0  0  0  0
    2.6996   -2.0766   -0.4295 C   0  0  0  0  0  0  0  0  0  0  0  0
    2.1120   -3.1115   -1.3662 C   0  0  0  0  0  0  0  0  0  0  0  0
    4.0470   -2.3007   -0.2170 N   0  0  0  0  0  0  0  0  0  0  0  0
    4.8824   -1.3110   -0.1250 C   0  0  0  0  0  0  0  0  0  0  0  0
    4.5757    0.1580   -0.2279 C   0  0  0  0  0  0  0  0  0  0  0  0
    5.3415    3.6028    2.6765 H   0  0  0  0  0  0  0  0  0  0  0  0
    4.2305    4.8009    1.9694 H   0  0  0  0  0  0  0  0  0  0  0  0
    3.6654    3.6576    3.2113 H   0  0  0  0  0  0  0  0  0  0  0  0
    4.5988    2.9098    0.3917 H   0  0  0  0  0  0  0  0  0  0  0  0
    2.8987    2.9551    0.9445 H   0  0  0  0  0  0  0  0  0  0  0  0
    1.8636    0.1601    1.9327 H   0  0  0  0  0  0  0  0  0  0  0  0
    0.2964   -1.1632   -1.0063 H   0  0  0  0  0  0  0  0  0  0  0  0
    0.7662   -1.9705    2.5460 H   0  0  0  0  0  0  0  0  0  0  0  0
   -3.3641   -3.0097    2.8287 H   0  0  0  0  0  0  0  0  0  0  0  0
   -3.2747   -1.6164   -2.5097 H   0  0  0  0  0  0  0  0  0  0  0  0
   -3.9660   -1.9953   -0.9573 H   0  0  0  0  0  0  0  0  0  0  0  0
   -4.9415    0.0422   -1.8980 H   0  0  0  0  0  0  0  0  0  0  0  0
   -3.1384    0.8370    0.4279 H   0  0  0  0  0  0  0  0  0  0  0  0
   -4.6807    0.0111    0.6003 H   0  0  0  0  0  0  0  0  0  0  0  0
   -5.9091    1.9123    0.0191 H   0  0  0  0  0  0  0  0  0  0  0  0
   -4.5001    2.6866    0.7424 H   0  0  0  0  0  0  0  0  0  0  0  0
   -3.1814    3.2573   -2.6847 H   0  0  0  0  0  0  0  0  0  0  0  0
   -2.5764    2.8410   -1.0808 H   0  0  0  0  0  0  0  0  0  0  0  0
   -3.4815    1.0374   -3.3458 H   0  0  0  0  0  0  0  0  0  0  0  0
   -2.0647    0.8987   -2.3253 H   0  0  0  0  0  0  0  0  0  0  0  0
    2.4458   -4.1147   -1.0775 H   0  0  0  0  0  0  0  0  0  0  0  0
    1.0197   -3.1352   -1.3760 H   0  0  0  0  0  0  0  0  0  0  0  0
    2.4537   -2.9191   -2.3889 H   0  0  0  0  0  0  0  0  0  0  0  0
    5.9412   -1.5690    0.0505 H   0  0  0  0  0  0  0  0  0  0  0  0
    4.1410    0.3881   -1.2058 H   0  0  0  0  0  0  0  0  0  0  0  0
    5.5230    0.7008   -0.1414 H   0  0  0  0  0  0  0  0  0  0  0  0
  1  2  1  0
  2  3  1  0
  3  4  1  0
  4  5  2  0
  5  6  1  0
  6  7  1  0
  7  8  1  0
  8  9  2  0
  9 10  1  0
 10 11  1  0
 10 12  2  0
 12 13  1  0
 13 14  2  0
 14 15  1  0
 15 16  1  0
 16 17  1  0
 17 18  1  0
 18 19  1  0
 19 20  1  0
 20 21  1  0
 21 22  1  0
  6 23  2  0
 23 24  1  0
 23 25  1  0
 25 26  2  0
 26 27  1  0
 27  4  1  0
 14  8  1  0
 22 17  1  0
  1 28  1  0
  1 29  1  0
  1 30  1  0
  2 31  1  0
  2 32  1  0
  5 33  1  0
  7 34  1  0
  9 35  1  0
 12 36  1  0
 16 37  1  0
 16 38  1  0
 17 39  1  0
 18 40  1  0
 18 41  1  0
 19 42  1  0
 19 43  1  0
 21 44  1  0
 21 45  1  0
 22 46  1  0
 22 47  1  0
 24 48  1  0
 24 49  1  0
 24 50  1  0
 26 51  1  0
 27 52  1  0
 27 53  1  0
M  END
$$$$
