
     RDKit          3D

 49 50  0  0  0  0  0  0  0  0999 V2000
    1.9131    5.3074    0.0041 C   0  0  0  0  0  0  0  0  0  0  0  0
    1.6449    3.9879   -0.7063 C   0  0  0  0  0  0  0  0  0  0  0  0
    0.1861    3.6265   -0.6421 C   0  0  0  0  0  0  0  0  0  0  0  0
   -0.3717    2.4987   -0.1692 C   0  0  0  0  0  0  0  0  0  0  0  0
    0.5119    1.4185    0.3790 C   0  0  0  0  0  0  0  0  0  0  0  0
    1.4026    0.7966   -0.3247 N   0  0  0  0  0  0  0  0  0  0  0  0
    2.1343   -0.2239    0.3081 C   0  0  0  0  0  0  0  0  0  0  0  0
    3.5273   -0.1936    0.2014 C   0  0  0  0  0  0  0  0  0  0  0  0
    4.3137   -1.1951    0.7826 C   0  0  0  0  0  0  0  0  0  0  0  0
    3.7075   -2.2524    1.4725 C   0  0  0  0  0  0  0  0  0  0  0  0
    4.4956   -3.3371    2.1035 C   0  0  0  0  0  0  0  0  0  0  0  0
    4.0367   -4.2891    2.7061 O   0  0  0  0  0  0  0  0  0  0  0  0
    5.8210   -3.1758    1.9509 O   0  0  0  0  0  0  0  0  0  0  0  0
    2.3147   -2.3030    1.5747 C   0  0  0  0  0  0  0  0  0  0  0  0
    1.5452   -1.2993    0.9913 C   0  0  0  0  0  0  0  0  0  0  0  0
    0.2092   -1.3795    1.0994 F   0  0  0  0  0  0  0  0  0  0  0  0
   -1.7445    2.2950   -0.1152 N   0  0  0  0  0  0  0  0  0  0  0  0
   -2.3741    0.9742   -0.1950 C   0  0  0  0  0  0  0  0  0  0  0  0
   -2.4504    0.4797   -1.6586 C   0  0  0  0  0  0  0  0  0  0  0  0
   -2.8953   -0.9005   -1.8868 N   0  0  0  0  0  0  0  0  0  0  0  0
   -4.2657   -1.1797   -1.4342 C   0  0  0  0  0  0  0  0  0  0  0  0
   -4.5318   -2.6928   -1.4097 C   0  0  0  0  0  0  0  0  0  0  0  0
   -3.7072   -3.3877   -0.4634 O   0  0  0  0  0  0  0  0  0  0  0  0
   -2.4517   -2.7382   -0.2179 C   0  0  0  0  0  0  0  0  0  0  0  0
   -1.9400   -1.9207   -1.4152 C   0  0  0  0  0  0  0  0  0  0  0  0
    1.3439    6.1261   -0.4490 H   0  0  0  0  0  0  0  0  0  0  0  0
    2.9759    5.5613   -0.0600 H   0  0  0  0  0  0  0  0  0  0  0  0
    1.6418    5.2482    1.0635 H   0  0  0  0  0  0  0  0  0  0  0  0
    2.2885    3.2243   -0.2622 H   0  0  0  0  0  0  0  0  0  0  0  0
    1.9352    4.0797   -1.7592 H   0  0  0  0  0  0  0  0  0  0  0  0
   -0.4784    4.3940   -1.0338 H   0  0  0  0  0  0  0  0  0  0  0  0
    0.3043    1.1651    1.4356 H   0  0  0  0  0  0  0  0  0  0  0  0
    4.0021    0.6189   -0.3440 H   0  0  0  0  0  0  0  0  0  0  0  0
    5.3957   -1.1415    0.6843 H   0  0  0  0  0  0  0  0  0  0  0  0
    6.2090   -3.9509    2.4091 H   0  0  0  0  0  0  0  0  0  0  0  0
    1.8200   -3.1158    2.0994 H   0  0  0  0  0  0  0  0  0  0  0  0
   -2.2667    3.0150   -0.6094 H   0  0  0  0  0  0  0  0  0  0  0  0
   -3.3844    1.0673    0.2169 H   0  0  0  0  0  0  0  0  0  0  0  0
   -1.8426    0.2576    0.4388 H   0  0  0  0  0  0  0  0  0  0  0  0
   -3.1160    1.1532   -2.2155 H   0  0  0  0  0  0  0  0  0  0  0  0
   -1.4705    0.6051   -2.1379 H   0  0  0  0  0  0  0  0  0  0  0  0
   -4.9773   -0.6922   -2.1091 H   0  0  0  0  0  0  0  0  0  0  0  0
   -4.4356   -0.7920   -0.4236 H   0  0  0  0  0  0  0  0  0  0  0  0
   -5.5744   -2.8875   -1.1383 H   0  0  0  0  0  0  0  0  0  0  0  0
   -4.3655   -3.1356   -2.3989 H   0  0  0  0  0  0  0  0  0  0  0  0
   -1.7263   -3.5159    0.0418 H   0  0  0  0  0  0  0  0  0  0  0  0
   -2.5704   -2.0999    0.6650 H   0  0  0  0  0  0  0  0  0  0  0  0
   -1.7807   -2.6113   -2.2531 H   0  0  0  0  0  0  0  0  0  0  0  0
   -0.9595   -1.4893   -1.1857 H   0  0  0  0  0  0  0  0  0  0  0  0
  1  2  1  0
  2  3  1  0
  3  4  2  3
  4  5  1  0
  5  6  2  3
  6  7  1  0
  7  8  2  0
  8  9  1  0
  9 10  2  0
 10 11  1  0
 11 12  2  0
 11 13  1  0
 10 14  1  0
 14 15  2  0
 15 16  1  0
  4 17  1  0
 17 18  1  0
 18 19  1  0
 19 20  1  0
 20 21  1  0
 21 22  1  0
 22 23  1  0
 23 24  1  0
 24 25  1  0
 15  7  1  0
 25 20  1  0
  1 26  1  0
  1 27  1  0
  1 28  1  0
  2 29  1  0
  2 30  1  0
  3 31  1  0
  5 32  1  0
  8 33  1  0
  9 34  1  0
 13 35  1  0
 14 36  1  0
 17 37  1  0
 18 38  1  0
 18 39  1  0
 19 40  1  0
 19 41  1  0
 21 42  1  0
 21 43  1  0
 22 44  1  0
 22 45  1  0
 24 46  1  0
 24 47  1  0
 25 48  1  0
 25 49  1  0
M  END
$$$$
