
     RDKit          3D

 58 61  0  0  0  0  0  0  0  0999 V2000
    6.1417    1.8071   -1.8747 C   0  0  0  0  0  0  0  0  0  0  0  0
    6.5828    0.4375   -1.5634 N   0  0  0  0  0  0  0  0  0  0  0  0
    7.1268    0.2969   -0.2027 C   0  0  0  0  0  0  0  0  0  0  0  0
    5.6081   -0.8334   -2.1401 S   0  0  0  0  0  0  0  0  0  0  0  0
    6.2498   -2.0865   -1.7997 O   0  0  0  0  0  0  0  0  0  0  0  0
    5.2352   -0.5343   -3.5070 O   0  0  0  0  0  0  0  0  0  0  0  0
    4.1376   -0.7012   -1.1425 C   0  0  0  0  0  0  0  0  0  0  0  0
    3.0628    0.0691   -1.5921 C   0  0  0  0  0  0  0  0  0  0  0  0
    1.9024    0.1457   -0.8203 C   0  0  0  0  0  0  0  0  0  0  0  0
    1.8002   -0.5573    0.3926 C   0  0  0  0  0  0  0  0  0  0  0  0
    0.5357   -0.4733    1.2203 C   0  0  0  0  0  0  0  0  0  0  0  0
   -0.6012   -0.9957    0.4681 N   0  0  0  0  0  0  0  0  0  0  0  0
   -1.9204   -0.9131    1.1225 C   0  0  0  0  0  0  0  0  0  0  0  0
   -1.9686   -1.6202    2.4864 C   0  0  0  0  0  0  0  0  0  0  0  0
   -3.3974   -1.7101    3.0387 C   0  0  2  0  0  0  0  0  0  0  0  0
   -3.9134   -3.0209    2.8228 O   0  0  0  0  0  0  0  0  0  0  0  0
   -4.3676   -0.6866    2.4464 C   0  0  0  0  0  0  0  0  0  0  0  0
   -3.6953    0.6539    2.1763 C   0  0  0  0  0  0  0  0  0  0  0  0
   -2.4689    0.5405    1.2417 C   0  0  2  0  0  0  0  0  0  0  0  0
   -2.7046    1.1467   -0.0647 N   0  0  0  0  0  0  0  0  0  0  0  0
   -2.0012    2.2060   -0.5820 C   0  0  0  0  0  0  0  0  0  0  0  0
   -2.4299    2.5500   -1.7778 N   0  0  0  0  0  0  0  0  0  0  0  0
   -3.4601    1.6710   -2.0456 C   0  0  0  0  0  0  0  0  0  0  0  0
   -4.3116    1.5200   -3.1527 C   0  0  0  0  0  0  0  0  0  0  0  0
   -4.2501    2.3329   -4.2782 N   0  0  0  0  0  0  0  0  0  0  0  0
   -5.2266    0.5246   -3.1341 N   0  0  0  0  0  0  0  0  0  0  0  0
   -5.2923   -0.2624   -2.0391 C   0  0  0  0  0  0  0  0  0  0  0  0
   -4.5406   -0.2097   -0.9205 N   0  0  0  0  0  0  0  0  0  0  0  0
   -3.6399    0.7837   -0.9955 C   0  0  0  0  0  0  0  0  0  0  0  0
    2.8813   -1.3445    0.8182 C   0  0  0  0  0  0  0  0  0  0  0  0
    4.0453   -1.4240    0.0508 C   0  0  0  0  0  0  0  0  0  0  0  0
    5.8498    1.9007   -2.9240 H   0  0  0  0  0  0  0  0  0  0  0  0
    6.9699    2.5053   -1.7132 H   0  0  0  0  0  0  0  0  0  0  0  0
    5.3080    2.1074   -1.2348 H   0  0  0  0  0  0  0  0  0  0  0  0
    7.5149   -0.7108   -0.0308 H   0  0  0  0  0  0  0  0  0  0  0  0
    7.9681    0.9863   -0.0715 H   0  0  0  0  0  0  0  0  0  0  0  0
    6.3693    0.5298    0.5509 H   0  0  0  0  0  0  0  0  0  0  0  0
    3.1139    0.5992   -2.5406 H   0  0  0  0  0  0  0  0  0  0  0  0
    1.0612    0.7381   -1.1790 H   0  0  0  0  0  0  0  0  0  0  0  0
    0.6747   -1.0365    2.1497 H   0  0  0  0  0  0  0  0  0  0  0  0
    0.3916    0.5772    1.4939 H   0  0  0  0  0  0  0  0  0  0  0  0
   -0.4029   -1.9674    0.2212 H   0  0  0  0  0  0  0  0  0  0  0  0
   -2.5891   -1.4739    0.4565 H   0  0  0  0  0  0  0  0  0  0  0  0
   -1.3636   -1.0508    3.2038 H   0  0  0  0  0  0  0  0  0  0  0  0
   -1.5266   -2.6217    2.4135 H   0  0  0  0  0  0  0  0  0  0  0  0
   -3.3517   -1.5779    4.1257 H   0  0  0  0  0  0  0  0  0  0  0  0
   -4.0372   -3.1522    1.8664 H   0  0  0  0  0  0  0  0  0  0  0  0
   -4.8181   -1.0762    1.5270 H   0  0  0  0  0  0  0  0  0  0  0  0
   -5.2082   -0.5486    3.1379 H   0  0  0  0  0  0  0  0  0  0  0  0
   -4.4318    1.3692    1.7907 H   0  0  0  0  0  0  0  0  0  0  0  0
   -3.3586    1.0603    3.1399 H   0  0  0  0  0  0  0  0  0  0  0  0
   -1.6982    1.1693    1.7068 H   0  0  0  0  0  0  0  0  0  0  0  0
   -1.1896    2.6836   -0.0485 H   0  0  0  0  0  0  0  0  0  0  0  0
   -3.3578    2.8031   -4.3831 H   0  0  0  0  0  0  0  0  0  0  0  0
   -4.6425    1.8802   -5.0928 H   0  0  0  0  0  0  0  0  0  0  0  0
   -6.0528   -1.0383   -2.0639 H   0  0  0  0  0  0  0  0  0  0  0  0
    2.8201   -1.9127    1.7444 H   0  0  0  0  0  0  0  0  0  0  0  0
    4.8672   -2.0551    0.3825 H   0  0  0  0  0  0  0  0  0  0  0  0
  1  2  1  0
  2  3  1  0
  2  4  1  0
  4  5  2  0
  4  6  2  0
  4  7  1  0
  7  8  2  0
  8  9  1  0
  9 10  2  0
 10 11  1  0
 11 12  1  0
 12 13  1  0
 13 14  1  0
 14 15  1  0
 15 16  1  0
 15 17  1  0
 17 18  1  0
 18 19  1  0
 19 20  1  0
 20 21  1  0
 21 22  2  0
 22 23  1  0
 23 24  2  0
 24 25  1  0
 24 26  1  0
 26 27  2  0
 27 28  1  0
 28 29  2  0
 10 30  1  0
 30 31  2  0
 31  7  1  0
 19 13  1  0
 29 20  1  0
 29 23  1  0
  1 32  1  0
  1 33  1  0
  1 34  1  0
  3 35  1  0
  3 36  1  0
  3 37  1  0
  8 38  1  0
  9 39  1  0
 11 40  1  0
 11 41  1  0
 12 42  1  0
 13 43  1  0
 14 44  1  0
 14 45  1  0
 15 46  1  1
 16 47  1  0
 17 48  1  0
 17 49  1  0
 18 50  1  0
 18 51  1  0
 19 52  1  1
 21 53  1  0
 25 54  1  0
 25 55  1  0
 27 56  1  0
 30 57  1  0
 31 58  1  0
M  END
$$$$
