
     RDKit          3D

 60 64  0  0  0  0  0  0  0  0999 V2000
   -6.7807    1.9602    1.4761 C   0  0  0  0  0  0  0  0  0  0  0  0
   -6.6542    0.4354    1.5587 C   0  0  0  0  0  0  0  0  0  0  0  0
   -5.1650   -0.0025    1.5031 C   0  0  0  0  0  0  0  0  0  0  0  0
   -4.5944   -0.3379    0.1200 C   0  0  0  0  0  0  0  0  0  0  0  0
   -3.2049   -0.2858   -0.0416 N   0  0  0  0  0  0  0  0  0  0  0  0
   -2.5390   -0.1082   -1.3164 C   0  0  0  0  0  0  0  0  0  0  0  0
   -1.0685   -0.3223   -1.0130 C   0  0  0  0  0  0  0  0  0  0  0  0
   -0.9320    0.2182    0.4011 C   0  0  0  0  0  0  0  0  0  0  0  0
    0.2363   -0.3598    1.1959 C   0  0  0  0  0  0  0  0  0  0  0  0
    1.5797    0.0141    0.6148 C   0  0  0  0  0  0  0  0  0  0  0  0
    2.3386   -0.9324   -0.0888 C   0  0  0  0  0  0  0  0  0  0  0  0
    3.5723   -0.5809   -0.6402 C   0  0  0  0  0  0  0  0  0  0  0  0
    4.0593    0.7194   -0.4784 C   0  0  0  0  0  0  0  0  0  0  0  0
    5.3538    1.1243   -1.0704 C   0  0  0  0  0  0  0  0  0  0  0  0
    5.3650    2.0990   -1.8183 O   0  0  0  0  0  0  0  0  0  0  0  0
    6.4917    0.3910   -0.7593 N   0  0  0  0  0  0  0  0  0  0  0  0
    6.6071   -0.5599    0.3534 C   0  0  0  0  0  0  0  0  0  0  0  0
    8.0179   -0.5364    0.9524 C   0  0  0  0  0  0  0  0  0  0  0  0
    9.0452   -0.8422    0.0003 O   0  0  0  0  0  0  0  0  0  0  0  0
    8.7536   -0.4056   -1.3362 C   0  0  0  0  0  0  0  0  0  0  0  0
    7.7523    0.7495   -1.4087 C   0  0  0  0  0  0  0  0  0  0  0  0
    3.3018    1.6765    0.2005 C   0  0  0  0  0  0  0  0  0  0  0  0
    2.0703    1.3212    0.7528 C   0  0  0  0  0  0  0  0  0  0  0  0
   -2.2701   -0.1547    1.0094 C   0  0  0  0  0  0  0  0  0  0  0  0
   -2.4614   -0.2721    2.2108 O   0  0  0  0  0  0  0  0  0  0  0  0
   -5.4699   -0.6602   -0.8547 C   0  0  0  0  0  0  0  0  0  0  0  0
   -5.3349   -1.1391   -2.1516 N   0  0  0  0  0  0  0  0  0  0  0  0
   -6.5743   -1.5329   -2.6413 C   0  0  0  0  0  0  0  0  0  0  0  0
   -7.5709   -1.2499   -1.7872 C   0  0  0  0  0  0  0  0  0  0  0  0
   -6.9206   -0.6687   -0.6305 C   0  0  0  0  0  0  0  0  0  0  0  0
   -7.4888   -0.1830    0.4749 C   0  0  0  0  0  0  0  0  0  0  0  0
   -8.8328   -0.2220    0.6166 F   0  0  0  0  0  0  0  0  0  0  0  0
   -7.8297    2.2726    1.5319 H   0  0  0  0  0  0  0  0  0  0  0  0
   -6.3621    2.3503    0.5413 H   0  0  0  0  0  0  0  0  0  0  0  0
   -6.2507    2.4383    2.3071 H   0  0  0  0  0  0  0  0  0  0  0  0
   -7.0592    0.1190    2.5283 H   0  0  0  0  0  0  0  0  0  0  0  0
   -4.5785    0.7969    1.9705 H   0  0  0  0  0  0  0  0  0  0  0  0
   -5.0476   -0.8976    2.1294 H   0  0  0  0  0  0  0  0  0  0  0  0
   -2.8536   -0.8301   -2.0677 H   0  0  0  0  0  0  0  0  0  0  0  0
   -2.7296    0.9109   -1.6708 H   0  0  0  0  0  0  0  0  0  0  0  0
   -0.4197    0.1855   -1.7328 H   0  0  0  0  0  0  0  0  0  0  0  0
   -0.8370   -1.3948   -1.0427 H   0  0  0  0  0  0  0  0  0  0  0  0
   -0.8835    1.3150    0.3807 H   0  0  0  0  0  0  0  0  0  0  0  0
    0.1997   -0.0040    2.2342 H   0  0  0  0  0  0  0  0  0  0  0  0
    0.1469   -1.4521    1.2648 H   0  0  0  0  0  0  0  0  0  0  0  0
    1.9693   -1.9474   -0.2194 H   0  0  0  0  0  0  0  0  0  0  0  0
    4.1402   -1.3150   -1.2052 H   0  0  0  0  0  0  0  0  0  0  0  0
    6.3989   -1.5526   -0.0608 H   0  0  0  0  0  0  0  0  0  0  0  0
    5.8690   -0.3348    1.1282 H   0  0  0  0  0  0  0  0  0  0  0  0
    8.0954   -1.2641    1.7663 H   0  0  0  0  0  0  0  0  0  0  0  0
    8.2375    0.4515    1.3743 H   0  0  0  0  0  0  0  0  0  0  0  0
    9.7007   -0.1180   -1.8034 H   0  0  0  0  0  0  0  0  0  0  0  0
    8.3679   -1.2733   -1.8840 H   0  0  0  0  0  0  0  0  0  0  0  0
    7.5653    1.0335   -2.4499 H   0  0  0  0  0  0  0  0  0  0  0  0
    8.1441    1.6271   -0.8807 H   0  0  0  0  0  0  0  0  0  0  0  0
    3.6698    2.6953    0.2975 H   0  0  0  0  0  0  0  0  0  0  0  0
    1.4930    2.0725    1.2883 H   0  0  0  0  0  0  0  0  0  0  0  0
   -4.5652   -1.7745   -2.3233 H   0  0  0  0  0  0  0  0  0  0  0  0
   -6.6395   -2.0216   -3.6036 H   0  0  0  0  0  0  0  0  0  0  0  0
   -8.6240   -1.4408   -1.9027 H   0  0  0  0  0  0  0  0  0  0  0  0
  1  2  1  0
  2  3  1  0
  3  4  1  0
  4  5  1  0
  5  6  1  0
  6  7  1  0
  7  8  1  0
  8  9  1  0
  9 10  1  0
 10 11  2  0
 11 12  1  0
 12 13  2  0
 13 14  1  0
 14 15  2  0
 14 16  1  0
 16 17  1  0
 17 18  1  0
 18 19  1  0
 19 20  1  0
 20 21  1  0
 13 22  1  0
 22 23  2  0
  8 24  1  0
 24 25  2  0
  4 26  2  0
 26 27  1  0
 27 28  1  0
 28 29  2  0
 29 30  1  0
 30 31  2  0
 31 32  1  0
 31  2  1  0
 24  5  1  0
 30 26  1  0
 23 10  1  0
 21 16  1  0
  1 33  1  0
  1 34  1  0
  1 35  1  0
  2 36  1  0
  3 37  1  0
  3 38  1  0
  6 39  1  0
  6 40  1  0
  7 41  1  0
  7 42  1  0
  8 43  1  0
  9 44  1  0
  9 45  1  0
 11 46  1  0
 12 47  1  0
 17 48  1  0
 17 49  1  0
 18 50  1  0
 18 51  1  0
 20 52  1  0
 20 53  1  0
 21 54  1  0
 21 55  1  0
 22 56  1  0
 23 57  1  0
 27 58  1  0
 28 59  1  0
 29 60  1  0
M  END
$$$$
