
     RDKit          3D

 42 44  0  0  0  0  0  0  0  0999 V2000
   -1.1107   -1.7761   -2.6177 O   0  0  0  0  0  0  0  0  0  0  0  0
   -1.0303   -0.3603   -2.3361 S   0  0  0  0  0  0  0  0  0  0  0  0
   -0.7581    0.6244   -3.3602 O   0  0  0  0  0  0  0  0  0  0  0  0
   -2.5296    0.0673   -1.6959 N   0  0  0  0  0  0  0  0  0  0  0  0
   -3.2539   -0.9595   -0.9518 C   0  0  0  0  0  0  0  0  0  0  0  0
   -4.3681   -0.3363   -0.1448 C   0  0  0  0  0  0  0  0  0  0  0  0
   -4.1077    0.1943    1.1295 C   0  0  0  0  0  0  0  0  0  0  0  0
   -5.1297    0.7949    1.8658 C   0  0  0  0  0  0  0  0  0  0  0  0
   -6.4080    0.8728    1.3267 C   0  0  0  0  0  0  0  0  0  0  0  0
   -7.3877    1.4508    2.0339 F   0  0  0  0  0  0  0  0  0  0  0  0
   -6.6844    0.3637    0.0635 C   0  0  0  0  0  0  0  0  0  0  0  0
   -5.6645   -0.2377   -0.6756 C   0  0  0  0  0  0  0  0  0  0  0  0
    0.0825   -0.0449   -0.9960 C   0  0  0  0  0  0  0  0  0  0  0  0
   -0.2281    0.9656   -0.0713 C   0  0  0  0  0  0  0  0  0  0  0  0
    0.6166    1.2122    1.0131 C   0  0  0  0  0  0  0  0  0  0  0  0
    1.7791    0.4606    1.1734 C   0  0  0  0  0  0  0  0  0  0  0  0
    2.1035   -0.5204    0.2322 C   0  0  0  0  0  0  0  0  0  0  0  0
    3.2316   -1.3028    0.3615 O   0  0  0  0  0  0  0  0  0  0  0  0
    4.4335   -0.6451    0.5006 C   0  0  0  0  0  0  0  0  0  0  0  0
    4.8079    0.4293   -0.3106 C   0  0  0  0  0  0  0  0  0  0  0  0
    6.0585    1.0241   -0.1372 C   0  0  0  0  0  0  0  0  0  0  0  0
    6.9359    0.5371    0.8323 C   0  0  0  0  0  0  0  0  0  0  0  0
    6.5685   -0.5501    1.6256 C   0  0  0  0  0  0  0  0  0  0  0  0
    5.3192   -1.1470    1.4548 C   0  0  0  0  0  0  0  0  0  0  0  0
    1.2510   -0.7862   -0.8458 C   0  0  0  0  0  0  0  0  0  0  0  0
    1.6054   -1.7463   -1.7493 O   0  0  0  0  0  0  0  0  0  0  0  0
   -3.0633    0.6574   -2.3316 H   0  0  0  0  0  0  0  0  0  0  0  0
   -2.5839   -1.4991   -0.2724 H   0  0  0  0  0  0  0  0  0  0  0  0
   -3.6765   -1.6918   -1.6493 H   0  0  0  0  0  0  0  0  0  0  0  0
   -3.1064    0.1418    1.5519 H   0  0  0  0  0  0  0  0  0  0  0  0
   -4.9375    1.2038    2.8526 H   0  0  0  0  0  0  0  0  0  0  0  0
   -7.6902    0.4403   -0.3375 H   0  0  0  0  0  0  0  0  0  0  0  0
   -5.8865   -0.6295   -1.6662 H   0  0  0  0  0  0  0  0  0  0  0  0
   -1.1246    1.5706   -0.1900 H   0  0  0  0  0  0  0  0  0  0  0  0
    0.3689    1.9907    1.7311 H   0  0  0  0  0  0  0  0  0  0  0  0
    2.4291    0.6458    2.0246 H   0  0  0  0  0  0  0  0  0  0  0  0
    4.1424    0.8051   -1.0830 H   0  0  0  0  0  0  0  0  0  0  0  0
    6.3518    1.8629   -0.7636 H   0  0  0  0  0  0  0  0  0  0  0  0
    7.9108    1.0003    0.9635 H   0  0  0  0  0  0  0  0  0  0  0  0
    7.2574   -0.9350    2.3732 H   0  0  0  0  0  0  0  0  0  0  0  0
    5.0364   -1.9986    2.0675 H   0  0  0  0  0  0  0  0  0  0  0  0
    2.4399   -2.1490   -1.4433 H   0  0  0  0  0  0  0  0  0  0  0  0
  1  2  2  0
  2  3  2  0
  2  4  1  0
  4  5  1  0
  5  6  1  0
  6  7  2  0
  7  8  1  0
  8  9  2  0
  9 10  1  0
  9 11  1  0
 11 12  2  0
  2 13  1  0
 13 14  2  0
 14 15  1  0
 15 16  2  0
 16 17  1  0
 17 18  1  0
 18 19  1  0
 19 20  2  0
 20 21  1  0
 21 22  2  0
 22 23  1  0
 23 24  2  0
 17 25  2  0
 25 26  1  0
 12  6  1  0
 25 13  1  0
 24 19  1  0
  4 27  1  0
  5 28  1  0
  5 29  1  0
  7 30  1  0
  8 31  1  0
 11 32  1  0
 12 33  1  0
 14 34  1  0
 15 35  1  0
 16 36  1  0
 20 37  1  0
 21 38  1  0
 22 39  1  0
 23 40  1  0
 24 41  1  0
 26 42  1  0
M  END
$$$$
