
     RDKit          3D

 45 48  0  0  0  0  0  0  0  0999 V2000
    3.5342   -3.2879    0.7786 C   0  0  0  0  0  0  0  0  0  0  0  0
    2.7350   -2.0345    1.0126 C   0  0  0  0  0  0  0  0  0  0  0  0
    1.3526   -2.1383    1.2408 C   0  0  0  0  0  0  0  0  0  0  0  0
    0.5758   -1.0014    1.4603 C   0  0  0  0  0  0  0  0  0  0  0  0
    1.1793    0.2530    1.4354 C   0  0  0  0  0  0  0  0  0  0  0  0
    0.2047    1.7182    1.6898 S   0  0  0  0  0  0  0  0  0  0  0  0
    0.9658    2.5686    2.5819 O   0  0  0  0  0  0  0  0  0  0  0  0
   -1.1496    1.3147    1.9993 O   0  0  0  0  0  0  0  0  0  0  0  0
    0.2976    2.4310    0.1554 N   0  0  0  0  0  0  0  0  0  0  0  0
   -0.9553    2.7980   -0.3927 C   0  0  0  0  0  0  0  0  0  0  0  0
   -1.1863    4.1135   -0.1984 N   0  0  0  0  0  0  0  0  0  0  0  0
   -2.3704    4.5856   -0.6380 C   0  0  0  0  0  0  0  0  0  0  0  0
   -3.3171    3.8057   -1.2774 C   0  0  0  0  0  0  0  0  0  0  0  0
   -3.0323    2.4567   -1.4820 C   0  0  0  0  0  0  0  0  0  0  0  0
   -1.8217    1.9053   -1.0345 C   0  0  0  0  0  0  0  0  0  0  0  0
   -1.5029    0.4985   -1.2990 C   0  0  0  0  0  0  0  0  0  0  0  0
   -0.3753    0.1044   -2.0374 C   0  0  0  0  0  0  0  0  0  0  0  0
   -0.1472   -1.2444   -2.2772 C   0  0  0  0  0  0  0  0  0  0  0  0
   -0.9344   -2.2616   -1.8660 N   0  0  0  0  0  0  0  0  0  0  0  0
   -1.9967   -1.8443   -1.1554 C   0  0  0  0  0  0  0  0  0  0  0  0
   -2.9318   -2.6835   -0.6152 N   0  0  0  0  0  0  0  0  0  0  0  0
   -3.8687   -1.9571    0.0716 C   0  0  0  0  0  0  0  0  0  0  0  0
   -3.5288   -0.6252   -0.0389 C   0  0  0  0  0  0  0  0  0  0  0  0
   -2.3447   -0.5363   -0.8301 C   0  0  0  0  0  0  0  0  0  0  0  0
    2.5572    0.3778    1.2289 C   0  0  0  0  0  0  0  0  0  0  0  0
    3.3464   -0.7629    1.0147 C   0  0  0  0  0  0  0  0  0  0  0  0
    4.8254   -0.6037    0.7900 C   0  0  0  0  0  0  0  0  0  0  0  0
    4.2822   -3.4138    1.5676 H   0  0  0  0  0  0  0  0  0  0  0  0
    4.0323   -3.2455   -0.1951 H   0  0  0  0  0  0  0  0  0  0  0  0
    2.8964   -4.1783    0.7820 H   0  0  0  0  0  0  0  0  0  0  0  0
    0.8656   -3.1117    1.2410 H   0  0  0  0  0  0  0  0  0  0  0  0
   -0.4924   -1.1065    1.6336 H   0  0  0  0  0  0  0  0  0  0  0  0
    0.8308    3.2931    0.2770 H   0  0  0  0  0  0  0  0  0  0  0  0
   -2.5453    5.6427   -0.4576 H   0  0  0  0  0  0  0  0  0  0  0  0
   -4.2535    4.2359   -1.6158 H   0  0  0  0  0  0  0  0  0  0  0  0
   -3.7586    1.8357   -2.0031 H   0  0  0  0  0  0  0  0  0  0  0  0
    0.3214    0.8406   -2.4262 H   0  0  0  0  0  0  0  0  0  0  0  0
    0.7288   -1.5540   -2.8428 H   0  0  0  0  0  0  0  0  0  0  0  0
   -2.9016   -3.6876   -0.7126 H   0  0  0  0  0  0  0  0  0  0  0  0
   -4.6853   -2.4466    0.5852 H   0  0  0  0  0  0  0  0  0  0  0  0
   -4.0646    0.1989    0.4151 H   0  0  0  0  0  0  0  0  0  0  0  0
    3.0149    1.3651    1.2370 H   0  0  0  0  0  0  0  0  0  0  0  0
    5.3877   -1.1509    1.5531 H   0  0  0  0  0  0  0  0  0  0  0  0
    5.1301    0.4467    0.8477 H   0  0  0  0  0  0  0  0  0  0  0  0
    5.1004   -0.9731   -0.2029 H   0  0  0  0  0  0  0  0  0  0  0  0
  1  2  1  0
  2  3  2  0
  3  4  1  0
  4  5  2  0
  5  6  1  0
  6  7  2  0
  6  8  2  0
  6  9  1  0
  9 10  1  0
 10 11  2  0
 11 12  1  0
 12 13  2  0
 13 14  1  0
 14 15  2  0
 15 16  1  0
 16 17  2  0
 17 18  1  0
 18 19  2  0
 19 20  1  0
 20 21  1  0
 21 22  1  0
 22 23  2  0
 23 24  1  0
  5 25  1  0
 25 26  2  0
 26 27  1  0
 26  2  1  0
 15 10  1  0
 24 16  1  0
 24 20  2  0
  1 28  1  0
  1 29  1  0
  1 30  1  0
  3 31  1  0
  4 32  1  0
  9 33  1  0
 12 34  1  0
 13 35  1  0
 14 36  1  0
 17 37  1  0
 18 38  1  0
 21 39  1  0
 22 40  1  0
 23 41  1  0
 25 42  1  0
 27 43  1  0
 27 44  1  0
 27 45  1  0
M  END
$$$$
