
     RDKit          3D

 51 53  0  0  0  0  0  0  0  0999 V2000
   -4.6450   -0.1503    0.7439 C   0  0  0  0  0  0  0  0  0  0  0  0
   -3.2311   -0.7329    0.6479 C   0  0  0  0  0  0  0  0  0  0  0  0
   -3.2635   -2.2630    0.7354 C   0  0  0  0  0  0  0  0  0  0  0  0
   -2.5146   -0.2600   -0.6113 C   0  0  0  0  0  0  0  0  0  0  0  0
   -3.0943   -0.5293   -1.8684 C   0  0  0  0  0  0  0  0  0  0  0  0
   -2.4927   -0.1157   -3.0529 C   0  0  0  0  0  0  0  0  0  0  0  0
   -1.3108    0.6057   -3.0057 C   0  0  0  0  0  0  0  0  0  0  0  0
   -0.7229    0.8911   -1.7764 C   0  0  0  0  0  0  0  0  0  0  0  0
   -1.2853    0.4457   -0.5648 C   0  0  0  0  0  0  0  0  0  0  0  0
   -0.5795    0.7302    0.7700 C   0  0  0  0  0  0  0  0  0  0  0  0
    0.7465    1.5330    0.7639 C   0  0  0  0  0  0  0  0  0  0  0  0
    0.5692    2.8921    0.7838 C   0  0  0  0  0  0  0  0  0  0  0  0
    1.1455    4.1201    0.8119 N   0  0  0  0  0  0  0  0  0  0  0  0
    2.4372    4.5054    0.7353 C   0  0  0  0  0  0  0  0  0  0  0  0
    3.5635    3.8755    0.3067 N   0  0  0  0  0  0  0  0  0  0  0  0
    3.6280    2.9766   -0.7026 C   0  0  0  0  0  0  0  0  0  0  0  0
    2.6871    3.0848   -1.6998 N   0  0  0  0  0  0  0  0  0  0  0  0
    3.9437    1.6868   -0.4255 N   0  0  0  0  0  0  0  0  0  0  0  0
    3.2296    1.3461    0.9002 N   0  0  0  0  0  0  0  0  0  0  0  0
    1.9326    0.8493    0.7888 C   0  0  0  0  0  0  0  0  0  0  0  0
    1.9573   -0.6348    0.7231 C   0  0  0  0  0  0  0  0  0  0  0  0
    2.0619   -1.3909    1.8997 C   0  0  0  0  0  0  0  0  0  0  0  0
    2.1086   -2.7832    1.8451 C   0  0  0  0  0  0  0  0  0  0  0  0
    2.0528   -3.4155    0.5946 C   0  0  0  0  0  0  0  0  0  0  0  0
    2.0879   -4.8798    0.5321 N   0  0  0  0  0  0  0  0  0  0  0  0
    2.3197   -5.5114    1.5780 O   0  0  0  0  0  0  0  0  0  0  0  0
    1.8623   -5.4258   -0.5603 O   0  0  0  0  0  0  0  0  0  0  0  0
    1.9722   -2.6763   -0.5914 C   0  0  0  0  0  0  0  0  0  0  0  0
    1.9314   -1.2814   -0.5189 C   0  0  0  0  0  0  0  0  0  0  0  0
   -5.2991   -0.5297   -0.0456 H   0  0  0  0  0  0  0  0  0  0  0  0
   -4.6223    0.9447    0.6623 H   0  0  0  0  0  0  0  0  0  0  0  0
   -5.1067   -0.4076    1.6998 H   0  0  0  0  0  0  0  0  0  0  0  0
   -2.7045   -0.3810    1.5386 H   0  0  0  0  0  0  0  0  0  0  0  0
   -2.2414   -2.6692    0.7742 H   0  0  0  0  0  0  0  0  0  0  0  0
   -3.7662   -2.7183   -0.1197 H   0  0  0  0  0  0  0  0  0  0  0  0
   -3.7864   -2.5895    1.6401 H   0  0  0  0  0  0  0  0  0  0  0  0
   -4.0225   -1.0864   -1.9331 H   0  0  0  0  0  0  0  0  0  0  0  0
   -2.9462   -0.3334   -4.0124 H   0  0  0  0  0  0  0  0  0  0  0  0
   -0.8251    0.9492   -3.9162 H   0  0  0  0  0  0  0  0  0  0  0  0
    0.1996    1.4611   -1.7678 H   0  0  0  0  0  0  0  0  0  0  0  0
   -0.4382   -0.2337    1.2776 H   0  0  0  0  0  0  0  0  0  0  0  0
   -1.2906    1.2635    1.4210 H   0  0  0  0  0  0  0  0  0  0  0  0
   -0.5065    3.0857    0.7800 H   0  0  0  0  0  0  0  0  0  0  0  0
    2.6346    5.5019    1.1152 H   0  0  0  0  0  0  0  0  0  0  0  0
    2.0511    3.7340   -1.2120 H   0  0  0  0  0  0  0  0  0  0  0  0
    2.2393    2.1848   -1.5449 H   0  0  0  0  0  0  0  0  0  0  0  0
    3.0852    2.3350    1.2359 H   0  0  0  0  0  0  0  0  0  0  0  0
    2.1464   -0.8544    2.8400 H   0  0  0  0  0  0  0  0  0  0  0  0
    2.2185   -3.3367    2.7718 H   0  0  0  0  0  0  0  0  0  0  0  0
    1.9623   -3.1454   -1.5705 H   0  0  0  0  0  0  0  0  0  0  0  0
    1.9220   -0.6663   -1.4168 H   0  0  0  0  0  0  0  0  0  0  0  0
  1  2  1  0
  2  3  1  0
  2  4  1  0
  4  5  2  0
  5  6  1  0
  6  7  2  0
  7  8  1  0
  8  9  2  0
  9 10  1  0
 10 11  1  0
 11 12  1  0
 12 13  2  0
 13 14  1  0
 14 15  2  0
 15 16  1  0
 16 17  1  0
 16 18  2  0
 18 19  1  0
 19 20  1  0
 20 21  1  0
 21 22  2  0
 22 23  1  0
 23 24  2  0
 24 25  1  0
 25 26  2  0
 25 27  1  0
 24 28  1  0
 28 29  2  0
  9  4  1  0
 20 11  2  0
 29 21  1  0
  1 30  1  0
  1 31  1  0
  1 32  1  0
  2 33  1  0
  3 34  1  0
  3 35  1  0
  3 36  1  0
  5 37  1  0
  6 38  1  0
  7 39  1  0
  8 40  1  0
 10 41  1  0
 10 42  1  0
 12 43  1  0
 14 44  1  0
 17 45  1  0
 17 46  1  0
 19 47  1  0
 22 48  1  0
 23 49  1  0
 28 50  1  0
 29 51  1  0
M  CHG  2  25   1  27  -1
M  END
$$$$
