
     RDKit          3D

 40 41  0  0  0  0  0  0  0  0999 V2000
   -2.0570   -4.1926   -0.4988 N   0  0  0  0  0  0  0  0  0  0  0  0
   -0.9225   -3.7486   -0.2228 N   0  0  0  0  0  0  0  0  0  0  0  0
   -0.8193   -2.3719   -0.1656 C   0  0  0  0  0  0  0  0  0  0  0  0
    0.3946   -1.8592    0.1378 C   0  0  0  0  0  0  0  0  0  0  0  0
    0.7425   -0.5281    0.1507 N   0  0  0  0  0  0  0  0  0  0  0  0
    1.9824    0.0700    0.4190 C   0  0  0  0  0  0  0  0  0  0  0  0
    2.1372    1.4367    0.1577 C   0  0  0  0  0  0  0  0  0  0  0  0
    3.3523    2.0858    0.3930 C   0  0  0  0  0  0  0  0  0  0  0  0
    4.4427    1.3795    0.9181 C   0  0  0  0  0  0  0  0  0  0  0  0
    5.7267    2.0821    1.1822 C   0  0  0  0  0  0  0  0  0  0  0  0
    6.6513    1.6655    1.8589 O   0  0  0  0  0  0  0  0  0  0  0  0
    5.7992    3.2874    0.5857 O   0  0  0  0  0  0  0  0  0  0  0  0
    4.2999    0.0173    1.2447 C   0  0  0  0  0  0  0  0  0  0  0  0
    5.3868   -0.7847    1.6485 N   0  0  0  0  0  0  0  0  0  0  0  0
    3.0804   -0.6219    0.9503 C   0  0  0  0  0  0  0  0  0  0  0  0
   -1.8941   -1.5168   -0.4504 N   0  0  0  0  0  0  0  0  0  0  0  0
   -2.5270   -0.7723    0.6356 C   0  0  0  0  0  0  0  0  0  0  0  0
   -3.6473    0.0693    0.0765 C   0  0  0  0  0  0  0  0  0  0  0  0
   -4.9541   -0.4538    0.0660 C   0  0  0  0  0  0  0  0  0  0  0  0
   -6.0174    0.2831   -0.4587 C   0  0  0  0  0  0  0  0  0  0  0  0
   -5.7919    1.5504   -0.9881 C   0  0  0  0  0  0  0  0  0  0  0  0
   -4.5018    2.0794   -0.9963 C   0  0  0  0  0  0  0  0  0  0  0  0
   -3.4338    1.3439   -0.4715 C   0  0  0  0  0  0  0  0  0  0  0  0
   -1.8644    2.0660   -0.5278 Cl  0  0  0  0  0  0  0  0  0  0  0  0
   -2.0536   -5.2197   -0.5399 H   0  0  0  0  0  0  0  0  0  0  0  0
    1.2055   -2.5459    0.3557 H   0  0  0  0  0  0  0  0  0  0  0  0
    0.0224    0.0723   -0.2492 H   0  0  0  0  0  0  0  0  0  0  0  0
    1.3105    2.0126   -0.2520 H   0  0  0  0  0  0  0  0  0  0  0  0
    3.4344    3.1447    0.1607 H   0  0  0  0  0  0  0  0  0  0  0  0
    6.6902    3.6151    0.8283 H   0  0  0  0  0  0  0  0  0  0  0  0
    5.1296   -1.5840    2.2175 H   0  0  0  0  0  0  0  0  0  0  0  0
    6.1486   -0.2388    2.0634 H   0  0  0  0  0  0  0  0  0  0  0  0
    3.0028   -1.6858    1.1506 H   0  0  0  0  0  0  0  0  0  0  0  0
   -2.5939   -2.1275   -0.8770 H   0  0  0  0  0  0  0  0  0  0  0  0
   -2.9288   -1.4742    1.3783 H   0  0  0  0  0  0  0  0  0  0  0  0
   -1.8110   -0.1455    1.1778 H   0  0  0  0  0  0  0  0  0  0  0  0
   -5.1497   -1.4468    0.4675 H   0  0  0  0  0  0  0  0  0  0  0  0
   -7.0215   -0.1348   -0.4575 H   0  0  0  0  0  0  0  0  0  0  0  0
   -6.6180    2.1249   -1.3996 H   0  0  0  0  0  0  0  0  0  0  0  0
   -4.3327    3.0670   -1.4186 H   0  0  0  0  0  0  0  0  0  0  0  0
  1  2  2  3
  2  3  1  0
  3  4  2  3
  4  5  1  0
  5  6  1  0
  6  7  2  0
  7  8  1  0
  8  9  2  0
  9 10  1  0
 10 11  2  0
 10 12  1  0
  9 13  1  0
 13 14  1  0
 13 15  2  0
  3 16  1  0
 16 17  1  0
 17 18  1  0
 18 19  2  0
 19 20  1  0
 20 21  2  0
 21 22  1  0
 22 23  2  0
 23 24  1  0
 15  6  1  0
 23 18  1  0
  1 25  1  0
  4 26  1  0
  5 27  1  0
  7 28  1  0
  8 29  1  0
 12 30  1  0
 14 31  1  0
 14 32  1  0
 15 33  1  0
 16 34  1  0
 17 35  1  0
 17 36  1  0
 19 37  1  0
 20 38  1  0
 21 39  1  0
 22 40  1  0
M  END
$$$$
