
     RDKit          3D

 53 54  0  0  0  0  0  0  0  0999 V2000
   -1.0866    3.2169    3.8306 C   0  0  0  0  0  0  0  0  0  0  0  0
   -1.7731    2.7456    2.8509 N   0  0  0  0  0  0  0  0  0  0  0  0
   -1.0884    1.6536    2.1450 C   0  0  0  0  0  0  0  0  0  0  0  0
   -1.9053    1.2860    0.9016 C   0  0  0  0  0  0  0  0  0  0  0  0
   -1.2119    0.2561    0.0346 C   0  0  0  0  0  0  0  0  0  0  0  0
   -0.4332    0.6109   -1.0059 C   0  0  0  0  0  0  0  0  0  0  0  0
    0.3064   -0.2951   -1.9618 C   0  0  0  0  0  0  0  0  0  0  0  0
    1.7590   -0.4386   -1.5153 C   0  0  0  0  0  0  0  0  0  0  0  0
    2.6394   -0.9354   -2.5674 N   0  0  0  0  0  0  0  0  0  0  0  0
    3.3027    0.1503   -2.5265 C   0  0  0  0  0  0  0  0  0  0  0  0
    4.3824    0.6623   -3.1048 N   0  0  0  0  0  0  0  0  0  0  0  0
    2.5195    0.7621   -1.6229 N   0  0  0  0  0  0  0  0  0  0  0  0
    3.0095    1.4517   -0.4433 C   0  0  0  0  0  0  0  0  0  0  0  0
    4.0693    0.6703    0.3401 C   0  0  0  0  0  0  0  0  0  0  0  0
    4.4672    1.4072    1.6111 C   0  0  0  0  0  0  0  0  0  0  0  0
    3.3741    1.4422    2.5210 O   0  0  0  0  0  0  0  0  0  0  0  0
   -1.4601   -1.1603    0.3813 C   0  0  0  0  0  0  0  0  0  0  0  0
   -0.5459   -1.7903    1.2427 C   0  0  0  0  0  0  0  0  0  0  0  0
   -0.7228   -3.1206    1.6140 C   0  0  0  0  0  0  0  0  0  0  0  0
   -1.8134   -3.8323    1.1272 C   0  0  0  0  0  0  0  0  0  0  0  0
   -2.7275   -3.2199    0.2639 C   0  0  0  0  0  0  0  0  0  0  0  0
   -2.5649   -1.8859   -0.1247 C   0  0  0  0  0  0  0  0  0  0  0  0
   -3.4555   -1.2340   -1.0127 N   0  0  0  0  0  0  0  0  0  0  0  0
   -4.5909   -1.7441   -1.6111 C   0  0  0  0  0  0  0  0  0  0  0  0
   -5.2571   -0.7368   -2.5155 C   0  0  0  0  0  0  0  0  0  0  0  0
   -5.0508   -2.8737   -1.4882 O   0  0  0  0  0  0  0  0  0  0  0  0
   -1.4935    4.0411    4.4375 H   0  0  0  0  0  0  0  0  0  0  0  0
   -0.0886    2.8410    4.1152 H   0  0  0  0  0  0  0  0  0  0  0  0
   -0.9994    0.7843    2.8074 H   0  0  0  0  0  0  0  0  0  0  0  0
   -0.0793    1.9663    1.8464 H   0  0  0  0  0  0  0  0  0  0  0  0
   -2.0921    2.1950    0.3129 H   0  0  0  0  0  0  0  0  0  0  0  0
   -2.8994    0.9288    1.2016 H   0  0  0  0  0  0  0  0  0  0  0  0
   -0.2942    1.6733   -1.2089 H   0  0  0  0  0  0  0  0  0  0  0  0
   -0.1614   -1.2836   -2.0204 H   0  0  0  0  0  0  0  0  0  0  0  0
    0.2355    0.1354   -2.9689 H   0  0  0  0  0  0  0  0  0  0  0  0
    1.8894   -0.9814   -0.5721 H   0  0  0  0  0  0  0  0  0  0  0  0
    4.2834    1.6401   -3.3473 H   0  0  0  0  0  0  0  0  0  0  0  0
    4.6783    0.1101   -3.9030 H   0  0  0  0  0  0  0  0  0  0  0  0
    3.4292    2.4159   -0.7549 H   0  0  0  0  0  0  0  0  0  0  0  0
    2.1565    1.6837    0.2045 H   0  0  0  0  0  0  0  0  0  0  0  0
    3.6859   -0.3210    0.6063 H   0  0  0  0  0  0  0  0  0  0  0  0
    4.9603    0.5228   -0.2799 H   0  0  0  0  0  0  0  0  0  0  0  0
    5.3092    0.9082    2.1015 H   0  0  0  0  0  0  0  0  0  0  0  0
    4.7648    2.4374    1.3928 H   0  0  0  0  0  0  0  0  0  0  0  0
    3.2875    0.5480    2.8965 H   0  0  0  0  0  0  0  0  0  0  0  0
    0.3101   -1.2431    1.6295 H   0  0  0  0  0  0  0  0  0  0  0  0
   -0.0134   -3.6021    2.2815 H   0  0  0  0  0  0  0  0  0  0  0  0
   -1.9587   -4.8711    1.4129 H   0  0  0  0  0  0  0  0  0  0  0  0
   -3.5577   -3.8209   -0.0937 H   0  0  0  0  0  0  0  0  0  0  0  0
   -3.2098   -0.2794   -1.2447 H   0  0  0  0  0  0  0  0  0  0  0  0
   -6.3152   -0.9904   -2.6241 H   0  0  0  0  0  0  0  0  0  0  0  0
   -4.7762   -0.7576   -3.4971 H   0  0  0  0  0  0  0  0  0  0  0  0
   -5.1930    0.2709   -2.0957 H   0  0  0  0  0  0  0  0  0  0  0  0
  1  2  2  0
  2  3  1  0
  3  4  1  0
  4  5  1  0
  5  6  2  3
  6  7  1  0
  7  8  1  0
  8  9  1  0
  9 10  2  0
 10 11  1  0
 10 12  1  0
 12 13  1  0
 13 14  1  0
 14 15  1  0
 15 16  1  0
  5 17  1  0
 17 18  2  0
 18 19  1  0
 19 20  2  0
 20 21  1  0
 21 22  2  0
 22 23  1  0
 23 24  1  0
 24 25  1  0
 24 26  2  0
 12  8  1  0
 22 17  1  0
  1 27  1  0
  1 28  1  0
  3 29  1  0
  3 30  1  0
  4 31  1  0
  4 32  1  0
  6 33  1  0
  7 34  1  0
  7 35  1  0
  8 36  1  0
 11 37  1  0
 11 38  1  0
 13 39  1  0
 13 40  1  0
 14 41  1  0
 14 42  1  0
 15 43  1  0
 15 44  1  0
 16 45  1  0
 18 46  1  0
 19 47  1  0
 20 48  1  0
 21 49  1  0
 23 50  1  0
 25 51  1  0
 25 52  1  0
 25 53  1  0
M  END
$$$$
