
     RDKit          3D

 42 44  0  0  0  0  0  0  0  0999 V2000
   -5.3789    2.4371    0.4171 O   0  0  0  0  0  0  0  0  0  0  0  0
   -5.9078    1.4443   -0.0513 C   0  0  0  0  0  0  0  0  0  0  0  0
   -7.0334    1.5476   -0.7842 O   0  0  0  0  0  0  0  0  0  0  0  0
   -5.4374    0.0229    0.0564 C   0  0  0  0  0  0  0  0  0  0  0  0
   -4.3299   -0.1088    1.0886 C   0  0  0  0  0  0  0  0  0  0  0  0
   -3.8875   -1.5500    1.2189 C   0  0  0  0  0  0  0  0  0  0  0  0
   -4.2800   -2.2407    2.1636 O   0  0  0  0  0  0  0  0  0  0  0  0
   -3.0025   -2.1402    0.1396 C   0  0  0  0  0  0  0  0  0  0  0  0
   -1.6376   -1.5052    0.0822 C   0  0  0  0  0  0  0  0  0  0  0  0
   -0.6461   -1.9066    0.9863 C   0  0  0  0  0  0  0  0  0  0  0  0
    0.6220   -1.3182    0.9590 C   0  0  0  0  0  0  0  0  0  0  0  0
    0.9322   -0.3089    0.0343 C   0  0  0  0  0  0  0  0  0  0  0  0
    2.2669    0.3086    0.0083 C   0  0  0  0  0  0  0  0  0  0  0  0
    2.4267    1.6941    0.1315 C   0  0  0  0  0  0  0  0  0  0  0  0
    3.7006    2.2756    0.1034 C   0  0  0  0  0  0  0  0  0  0  0  0
    4.8480    1.5123   -0.0471 C   0  0  0  0  0  0  0  0  0  0  0  0
    6.0485    2.1180   -0.0702 N   0  0  0  0  0  0  0  0  0  0  0  0
    7.1459    1.3437   -0.2178 C   0  0  0  0  0  0  0  0  0  0  0  0
    7.1075   -0.0314   -0.3472 C   0  0  0  0  0  0  0  0  0  0  0  0
    5.8652   -0.6532   -0.3236 C   0  0  0  0  0  0  0  0  0  0  0  0
    4.7034    0.1157   -0.1711 C   0  0  0  0  0  0  0  0  0  0  0  0
    3.4235   -0.4714   -0.1418 C   0  0  0  0  0  0  0  0  0  0  0  0
   -0.0689    0.0971   -0.8630 C   0  0  0  0  0  0  0  0  0  0  0  0
   -1.3332   -0.4948   -0.8328 C   0  0  0  0  0  0  0  0  0  0  0  0
   -2.3066   -0.0794   -1.6981 O   0  0  0  0  0  0  0  0  0  0  0  0
   -7.2358    2.5068   -0.7805 H   0  0  0  0  0  0  0  0  0  0  0  0
   -6.2864   -0.6071    0.3457 H   0  0  0  0  0  0  0  0  0  0  0  0
   -5.0917   -0.2963   -0.9320 H   0  0  0  0  0  0  0  0  0  0  0  0
   -3.4708    0.5245    0.8489 H   0  0  0  0  0  0  0  0  0  0  0  0
   -4.6843    0.2265    2.0714 H   0  0  0  0  0  0  0  0  0  0  0  0
   -2.8883   -3.2137    0.3388 H   0  0  0  0  0  0  0  0  0  0  0  0
   -3.5223   -2.0815   -0.8222 H   0  0  0  0  0  0  0  0  0  0  0  0
   -0.8555   -2.6797    1.7242 H   0  0  0  0  0  0  0  0  0  0  0  0
    1.3674   -1.6464    1.6816 H   0  0  0  0  0  0  0  0  0  0  0  0
    1.5605    2.3392    0.2654 H   0  0  0  0  0  0  0  0  0  0  0  0
    3.7987    3.3539    0.2054 H   0  0  0  0  0  0  0  0  0  0  0  0
    8.0902    1.8806   -0.2292 H   0  0  0  0  0  0  0  0  0  0  0  0
    8.0203   -0.6042   -0.4632 H   0  0  0  0  0  0  0  0  0  0  0  0
    5.8071   -1.7339   -0.4235 H   0  0  0  0  0  0  0  0  0  0  0  0
    3.3283   -1.5508   -0.2488 H   0  0  0  0  0  0  0  0  0  0  0  0
    0.1530    0.8757   -1.5884 H   0  0  0  0  0  0  0  0  0  0  0  0
   -1.9309    0.5982   -2.2863 H   0  0  0  0  0  0  0  0  0  0  0  0
  1  2  2  0
  2  3  1  0
  2  4  1  0
  4  5  1  0
  5  6  1  0
  6  7  2  0
  6  8  1  0
  8  9  1  0
  9 10  2  0
 10 11  1  0
 11 12  2  0
 12 13  1  0
 13 14  2  0
 14 15  1  0
 15 16  2  0
 16 17  1  0
 17 18  2  0
 18 19  1  0
 19 20  2  0
 20 21  1  0
 21 22  2  0
 12 23  1  0
 23 24  2  0
 24 25  1  0
 24  9  1  0
 22 13  1  0
 21 16  1  0
  3 26  1  0
  4 27  1  0
  4 28  1  0
  5 29  1  0
  5 30  1  0
  8 31  1  0
  8 32  1  0
 10 33  1  0
 11 34  1  0
 14 35  1  0
 15 36  1  0
 18 37  1  0
 19 38  1  0
 20 39  1  0
 22 40  1  0
 23 41  1  0
 25 42  1  0
M  END
$$$$
