
     RDKit          3D

 45 47  0  0  0  0  0  0  0  0999 V2000
    0.2300    2.7201    1.3443 O   0  0  0  0  0  0  0  0  0  0  0  0
    0.0810    1.5584    0.9787 C   0  0  0  0  0  0  0  0  0  0  0  0
   -1.1268    0.9186    1.1073 N   0  0  0  0  0  0  0  0  0  0  0  0
   -1.3733   -0.3794    0.7142 C   0  0  0  0  0  0  0  0  0  0  0  0
   -2.7612   -0.9420    0.9412 C   0  0  0  0  0  0  0  0  0  0  0  0
   -3.6298   -0.8730   -0.2416 N   0  0  0  0  0  0  0  0  0  0  0  0
   -3.8608    0.5150   -0.6978 C   0  0  0  0  0  0  0  0  0  0  0  0
   -5.1606    0.6450   -1.5071 C   0  0  0  0  0  0  0  0  0  0  0  0
   -6.3252    0.3511   -0.7225 O   0  0  0  0  0  0  0  0  0  0  0  0
   -6.0813   -0.6200    0.3034 C   0  0  0  0  0  0  0  0  0  0  0  0
   -4.9160   -1.5697   -0.0215 C   0  0  0  0  0  0  0  0  0  0  0  0
   -0.3689   -1.0921    0.1784 C   0  0  0  0  0  0  0  0  0  0  0  0
    0.9363   -0.4998   -0.0047 C   0  0  0  0  0  0  0  0  0  0  0  0
    1.1992    0.7663    0.3695 C   0  0  0  0  0  0  0  0  0  0  0  0
    2.5041    1.5087    0.2427 C   0  0  0  0  0  0  0  0  0  0  0  0
    3.6565    0.7317   -0.3693 C   0  0  0  0  0  0  0  0  0  0  0  0
    3.8858    0.8641   -1.7527 C   0  0  0  0  0  0  0  0  0  0  0  0
    4.9176    0.1685   -2.3824 C   0  0  0  0  0  0  0  0  0  0  0  0
    5.7388   -0.6714   -1.6401 C   0  0  0  0  0  0  0  0  0  0  0  0
    5.5240   -0.8205   -0.2702 C   0  0  0  0  0  0  0  0  0  0  0  0
    4.4803   -0.1366    0.3812 C   0  0  0  0  0  0  0  0  0  0  0  0
    4.3262   -0.3409    1.8689 C   0  0  0  0  0  0  0  0  0  0  0  0
    5.2780    0.4361    2.5811 O   0  0  0  0  0  0  0  0  0  0  0  0
   -1.8664    1.4740    1.5186 H   0  0  0  0  0  0  0  0  0  0  0  0
   -2.6431   -1.9945    1.2325 H   0  0  0  0  0  0  0  0  0  0  0  0
   -3.2322   -0.4461    1.8022 H   0  0  0  0  0  0  0  0  0  0  0  0
   -3.0172    0.8392   -1.3172 H   0  0  0  0  0  0  0  0  0  0  0  0
   -3.9369    1.1914    0.1629 H   0  0  0  0  0  0  0  0  0  0  0  0
   -5.2696    1.6661   -1.8854 H   0  0  0  0  0  0  0  0  0  0  0  0
   -5.1513   -0.0221   -2.3779 H   0  0  0  0  0  0  0  0  0  0  0  0
   -5.8911   -0.0844    1.2415 H   0  0  0  0  0  0  0  0  0  0  0  0
   -7.0067   -1.1903    0.4386 H   0  0  0  0  0  0  0  0  0  0  0  0
   -5.1540   -2.0981   -0.9527 H   0  0  0  0  0  0  0  0  0  0  0  0
   -4.8339   -2.3413    0.7540 H   0  0  0  0  0  0  0  0  0  0  0  0
   -0.5169   -2.1159   -0.1485 H   0  0  0  0  0  0  0  0  0  0  0  0
    1.6926   -1.1293   -0.4639 H   0  0  0  0  0  0  0  0  0  0  0  0
    2.8157    1.8896    1.2222 H   0  0  0  0  0  0  0  0  0  0  0  0
    2.3343    2.4057   -0.3677 H   0  0  0  0  0  0  0  0  0  0  0  0
    3.2517    1.5160   -2.3529 H   0  0  0  0  0  0  0  0  0  0  0  0
    5.0760    0.2844   -3.4501 H   0  0  0  0  0  0  0  0  0  0  0  0
    6.5471   -1.2109   -2.1268 H   0  0  0  0  0  0  0  0  0  0  0  0
    6.1803   -1.4775    0.2981 H   0  0  0  0  0  0  0  0  0  0  0  0
    4.4753   -1.3975    2.1252 H   0  0  0  0  0  0  0  0  0  0  0  0
    3.3278   -0.0743    2.2272 H   0  0  0  0  0  0  0  0  0  0  0  0
    5.6648    1.0776    1.9603 H   0  0  0  0  0  0  0  0  0  0  0  0
  1  2  2  0
  2  3  1  0
  3  4  1  0
  4  5  1  0
  5  6  1  0
  6  7  1  0
  7  8  1  0
  8  9  1  0
  9 10  1  0
 10 11  1  0
  4 12  2  0
 12 13  1  0
 13 14  2  0
 14 15  1  0
 15 16  1  0
 16 17  2  0
 17 18  1  0
 18 19  2  0
 19 20  1  0
 20 21  2  0
 21 22  1  0
 22 23  1  0
 14  2  1  0
 21 16  1  0
 11  6  1  0
  3 24  1  0
  5 25  1  0
  5 26  1  0
  7 27  1  0
  7 28  1  0
  8 29  1  0
  8 30  1  0
 10 31  1  0
 10 32  1  0
 11 33  1  0
 11 34  1  0
 12 35  1  0
 13 36  1  0
 15 37  1  0
 15 38  1  0
 17 39  1  0
 18 40  1  0
 19 41  1  0
 20 42  1  0
 22 43  1  0
 22 44  1  0
 23 45  1  0
M  END
$$$$
