
     RDKit          3D

 50 53  0  0  0  0  0  0  0  0999 V2000
    1.1215   -2.3411   -0.4288 N   0  0  0  0  0  0  0  0  0  0  0  0
    0.2484   -1.2389   -0.4589 C   0  0  0  0  0  0  0  0  0  0  0  0
   -1.0615   -1.5370   -0.4974 N   0  0  0  0  0  0  0  0  0  0  0  0
   -1.9366   -0.5292   -0.5268 C   0  0  0  0  0  0  0  0  0  0  0  0
   -3.2724   -0.8979   -0.5007 N   0  0  0  0  0  0  0  0  0  0  0  0
   -4.1450   -0.1692   -1.4068 C   0  0  0  0  0  0  0  0  0  0  0  0
   -5.4897    0.1452   -0.7345 C   0  0  0  0  0  0  0  0  0  0  0  0
   -6.2833   -1.1153   -0.3461 C   0  0  0  0  0  0  0  0  0  0  0  0
   -7.2204   -0.8613    0.8321 C   0  0  0  0  0  0  0  0  0  0  0  0
   -7.7173    0.4721    0.7816 O   0  0  0  0  0  0  0  0  0  0  0  0
   -6.7015    1.4400    1.0568 C   0  0  0  0  0  0  0  0  0  0  0  0
   -5.3358    1.0700    0.4771 C   0  0  0  0  0  0  0  0  0  0  0  0
   -1.5898    0.7614   -0.5315 N   0  0  0  0  0  0  0  0  0  0  0  0
   -0.2713    1.0282   -0.4889 C   0  0  0  0  0  0  0  0  0  0  0  0
    0.7250    0.0698   -0.4430 C   0  0  0  0  0  0  0  0  0  0  0  0
    2.1417    0.4464   -0.3583 C   0  0  0  0  0  0  0  0  0  0  0  0
    2.6144    1.2202    0.7160 C   0  0  0  0  0  0  0  0  0  0  0  0
    3.9670    1.5661    0.8141 C   0  0  0  0  0  0  0  0  0  0  0  0
    4.8752    1.1465   -0.1626 C   0  0  0  0  0  0  0  0  0  0  0  0
    6.2938    1.4774   -0.0309 C   0  0  0  0  0  0  0  0  0  0  0  0
    7.2239    0.6534    0.4715 C   0  0  0  0  0  0  0  0  0  0  0  0
    8.8930    1.0934    0.6135 S   0  0  0  0  0  0  0  0  0  0  0  0
    9.3302   -0.4508    1.3130 C   0  0  0  0  0  0  0  0  0  0  0  0
   10.4557   -0.7498    1.6722 O   0  0  0  0  0  0  0  0  0  0  0  0
    8.2322   -1.2409    1.3969 N   0  0  0  0  0  0  0  0  0  0  0  0
    7.0344   -0.7349    0.9865 C   0  0  0  0  0  0  0  0  0  0  0  0
    5.9815   -1.3484    1.0454 O   0  0  0  0  0  0  0  0  0  0  0  0
    4.4197    0.3918   -1.2447 C   0  0  0  0  0  0  0  0  0  0  0  0
    3.0712    0.0502   -1.3304 C   0  0  0  0  0  0  0  0  0  0  0  0
    2.6716   -0.6939   -2.3738 F   0  0  0  0  0  0  0  0  0  0  0  0
    1.7231   -2.3090   -1.2500 H   0  0  0  0  0  0  0  0  0  0  0  0
    1.7238   -2.2817    0.3877 H   0  0  0  0  0  0  0  0  0  0  0  0
   -3.2627   -1.9032   -0.6495 H   0  0  0  0  0  0  0  0  0  0  0  0
   -3.7080    0.7741   -1.7593 H   0  0  0  0  0  0  0  0  0  0  0  0
   -4.3178   -0.7824   -2.3006 H   0  0  0  0  0  0  0  0  0  0  0  0
   -6.0898    0.6891   -1.4790 H   0  0  0  0  0  0  0  0  0  0  0  0
   -6.8745   -1.4233   -1.2183 H   0  0  0  0  0  0  0  0  0  0  0  0
   -5.6375   -1.9660   -0.1040 H   0  0  0  0  0  0  0  0  0  0  0  0
   -8.0708   -1.5498    0.7918 H   0  0  0  0  0  0  0  0  0  0  0  0
   -6.7122   -1.0273    1.7902 H   0  0  0  0  0  0  0  0  0  0  0  0
   -7.0443    2.3870    0.6278 H   0  0  0  0  0  0  0  0  0  0  0  0
   -6.6311    1.5851    2.1405 H   0  0  0  0  0  0  0  0  0  0  0  0
   -4.7817    1.9809    0.2229 H   0  0  0  0  0  0  0  0  0  0  0  0
   -4.7518    0.5638    1.2567 H   0  0  0  0  0  0  0  0  0  0  0  0
   -0.0328    2.0885   -0.4914 H   0  0  0  0  0  0  0  0  0  0  0  0
    1.9341    1.5427    1.5044 H   0  0  0  0  0  0  0  0  0  0  0  0
    4.3037    2.1497    1.6693 H   0  0  0  0  0  0  0  0  0  0  0  0
    6.5614    2.4759   -0.3689 H   0  0  0  0  0  0  0  0  0  0  0  0
    8.2942   -2.1633    1.7948 H   0  0  0  0  0  0  0  0  0  0  0  0
    5.0987    0.0461   -2.0182 H   0  0  0  0  0  0  0  0  0  0  0  0
  1  2  1  0
  2  3  2  0
  3  4  1  0
  4  5  1  0
  5  6  1  0
  6  7  1  0
  7  8  1  0
  8  9  1  0
  9 10  1  0
 10 11  1  0
 11 12  1  0
  4 13  2  0
 13 14  1  0
 14 15  2  0
 15 16  1  0
 16 17  2  0
 17 18  1  0
 18 19  2  0
 19 20  1  0
 20 21  2  3
 21 22  1  0
 22 23  1  0
 23 24  2  0
 23 25  1  0
 25 26  1  0
 26 27  2  0
 19 28  1  0
 28 29  2  0
 29 30  1  0
 15  2  1  0
 29 16  1  0
 12  7  1  0
 26 21  1  0
  1 31  1  0
  1 32  1  0
  5 33  1  0
  6 34  1  0
  6 35  1  0
  7 36  1  0
  8 37  1  0
  8 38  1  0
  9 39  1  0
  9 40  1  0
 11 41  1  0
 11 42  1  0
 12 43  1  0
 12 44  1  0
 14 45  1  0
 17 46  1  0
 18 47  1  0
 20 48  1  0
 25 49  1  0
 28 50  1  0
M  END
$$$$
