
     RDKit          3D

 42 44  0  0  0  0  0  0  0  0999 V2000
   -5.7097   -2.7372   -0.4948 C   0  0  0  0  0  0  0  0  0  0  0  0
   -5.1695   -1.6103    0.1799 O   0  0  0  0  0  0  0  0  0  0  0  0
   -3.9456   -1.1457   -0.2323 C   0  0  0  0  0  0  0  0  0  0  0  0
   -3.1934   -1.7089   -1.2658 C   0  0  0  0  0  0  0  0  0  0  0  0
   -1.9531   -1.1658   -1.6159 C   0  0  0  0  0  0  0  0  0  0  0  0
   -1.4352   -0.0510   -0.9424 C   0  0  0  0  0  0  0  0  0  0  0  0
   -0.1286    0.5129   -1.3090 C   0  0  0  0  0  0  0  0  0  0  0  0
    0.1592    0.9095   -2.6165 C   0  0  0  0  0  0  0  0  0  0  0  0
    1.3250    1.4336   -3.0625 N   0  0  0  0  0  0  0  0  0  0  0  0
    2.2572    1.5599   -2.0979 C   0  0  0  0  0  0  0  0  0  0  0  0
    3.8086    2.1980   -2.3752 S   0  0  0  0  0  0  0  0  0  0  0  0
    4.3426    2.0551   -0.8119 N   0  0  0  0  0  0  0  0  0  0  0  0
    3.3749    1.5016   -0.0698 C   0  0  0  0  0  0  0  0  0  0  0  0
    3.6364    1.2738    1.3999 C   0  0  0  0  0  0  0  0  0  0  0  0
    4.3139    0.0050    1.7267 N   0  0  0  0  0  0  0  0  0  0  0  0
    5.6758   -0.0609    1.2013 C   0  0  0  0  0  0  0  0  0  0  0  0
    3.5494   -1.1820    1.3649 C   0  0  0  0  0  0  0  0  0  0  0  0
    2.1341    1.2146   -0.7576 C   0  0  0  0  0  0  0  0  0  0  0  0
    0.8906    0.6752   -0.3579 C   0  0  0  0  0  0  0  0  0  0  0  0
   -2.1989    0.5101    0.0965 C   0  0  0  0  0  0  0  0  0  0  0  0
   -3.4446   -0.0234    0.4551 C   0  0  0  0  0  0  0  0  0  0  0  0
   -4.2419    0.4737    1.4567 O   0  0  0  0  0  0  0  0  0  0  0  0
   -3.8005    1.6369    2.1412 C   0  0  0  0  0  0  0  0  0  0  0  0
   -6.6798   -2.9646   -0.0424 H   0  0  0  0  0  0  0  0  0  0  0  0
   -5.0703   -3.6170   -0.3689 H   0  0  0  0  0  0  0  0  0  0  0  0
   -5.8804   -2.5192   -1.5542 H   0  0  0  0  0  0  0  0  0  0  0  0
   -3.5408   -2.5749   -1.8192 H   0  0  0  0  0  0  0  0  0  0  0  0
   -1.3867   -1.6372   -2.4177 H   0  0  0  0  0  0  0  0  0  0  0  0
   -0.5986    0.8178   -3.3941 H   0  0  0  0  0  0  0  0  0  0  0  0
    2.6886    1.3199    1.9511 H   0  0  0  0  0  0  0  0  0  0  0  0
    4.2292    2.1097    1.7952 H   0  0  0  0  0  0  0  0  0  0  0  0
    6.2504    0.8264    1.4893 H   0  0  0  0  0  0  0  0  0  0  0  0
    6.2019   -0.9223    1.6286 H   0  0  0  0  0  0  0  0  0  0  0  0
    5.7066   -0.1604    0.1111 H   0  0  0  0  0  0  0  0  0  0  0  0
    4.0288   -2.0803    1.7705 H   0  0  0  0  0  0  0  0  0  0  0  0
    2.5452   -1.1450    1.8008 H   0  0  0  0  0  0  0  0  0  0  0  0
    3.4564   -1.3135    0.2815 H   0  0  0  0  0  0  0  0  0  0  0  0
    0.7329    0.3754    0.6747 H   0  0  0  0  0  0  0  0  0  0  0  0
   -1.8032    1.3800    0.6120 H   0  0  0  0  0  0  0  0  0  0  0  0
   -2.8675    1.4462    2.6815 H   0  0  0  0  0  0  0  0  0  0  0  0
   -4.5636    1.9003    2.8799 H   0  0  0  0  0  0  0  0  0  0  0  0
   -3.6959    2.4841    1.4554 H   0  0  0  0  0  0  0  0  0  0  0  0
  1  2  1  0
  2  3  1  0
  3  4  2  0
  4  5  1  0
  5  6  2  0
  6  7  1  0
  7  8  2  0
  8  9  1  0
  9 10  2  0
 10 11  1  0
 11 12  1  0
 12 13  2  0
 13 14  1  0
 14 15  1  0
 15 16  1  0
 15 17  1  0
 13 18  1  0
 18 19  2  0
  6 20  1  0
 20 21  2  0
 21 22  1  0
 22 23  1  0
 21  3  1  0
 19  7  1  0
 18 10  1  0
  1 24  1  0
  1 25  1  0
  1 26  1  0
  4 27  1  0
  5 28  1  0
  8 29  1  0
 14 30  1  0
 14 31  1  0
 16 32  1  0
 16 33  1  0
 16 34  1  0
 17 35  1  0
 17 36  1  0
 17 37  1  0
 19 38  1  0
 20 39  1  0
 23 40  1  0
 23 41  1  0
 23 42  1  0
M  END
$$$$
