
     RDKit          3D

 54 57  0  0  0  0  0  0  0  0999 V2000
   -3.5263   -4.4067    1.1095 C   0  0  0  0  0  0  0  0  0  0  0  0
   -3.1706   -3.2535    0.5351 C   0  0  0  0  0  0  0  0  0  0  0  0
   -2.9613   -2.0128    1.2327 C   0  0  0  0  0  0  0  0  0  0  0  0
   -2.4892   -1.0576    0.4156 C   0  0  0  0  0  0  0  0  0  0  0  0
   -2.2874    0.3432    0.8346 C   0  0  0  0  0  0  0  0  0  0  0  0
   -3.1837    0.7216    1.7897 N   0  0  0  0  0  0  0  0  0  0  0  0
   -3.2005    1.9374    2.3104 N   0  0  0  0  0  0  0  0  0  0  0  0
   -2.2808    2.8055    1.8676 C   0  0  0  0  0  0  0  0  0  0  0  0
   -2.2041    4.3868    2.4809 S   0  0  0  0  0  0  0  0  0  0  0  0
   -0.8655    4.7761    1.4915 C   0  0  0  0  0  0  0  0  0  0  0  0
   -0.2295    6.0809    1.5120 C   0  0  0  0  0  0  0  0  0  0  0  0
   -0.7480    7.0137    2.3649 N   0  0  0  0  0  0  0  0  0  0  0  0
    0.7348    6.3787    0.8120 O   0  0  0  0  0  0  0  0  0  0  0  0
   -0.5017    3.6963    0.7059 C   0  0  0  0  0  0  0  0  0  0  0  0
   -1.3237    2.5323    0.9065 C   0  0  0  0  0  0  0  0  0  0  0  0
   -1.3131    1.2296    0.3320 C   0  0  0  0  0  0  0  0  0  0  0  0
   -0.2649    0.8510   -0.6849 C   0  0  0  0  0  0  0  0  0  0  0  0
    0.8764    0.0371   -0.0669 C   0  0  0  0  0  0  0  0  0  0  0  0
    1.9270   -0.3191   -1.1273 C   0  0  0  0  0  0  0  0  0  0  0  0
    2.9931   -1.1642   -0.5786 N   0  0  0  0  0  0  0  0  0  0  0  0
    3.9437   -0.4325    0.2886 C   0  0  0  0  0  0  0  0  0  0  0  0
    5.2901   -0.1243   -0.3885 C   0  0  0  0  0  0  0  0  0  0  0  0
    5.9775   -1.2958   -0.8457 O   0  0  0  0  0  0  0  0  0  0  0  0
    5.0904   -2.3665   -1.1963 C   0  0  0  0  0  0  0  0  0  0  0  0
    3.7159   -1.8663   -1.6622 C   0  0  0  0  0  0  0  0  0  0  0  0
   -2.2908   -1.6002   -0.9687 C   0  0  0  0  0  0  0  0  0  0  0  0
   -2.9235   -3.0084   -0.9333 C   0  0  0  0  0  0  0  0  0  0  0  0
   -4.2119   -3.0671   -1.7534 C   0  0  0  0  0  0  0  0  0  0  0  0
   -3.6682   -5.3063    0.5195 H   0  0  0  0  0  0  0  0  0  0  0  0
   -3.6845   -4.4833    2.1808 H   0  0  0  0  0  0  0  0  0  0  0  0
   -3.1912   -1.8807    2.2826 H   0  0  0  0  0  0  0  0  0  0  0  0
   -0.3139    7.9254    2.3934 H   0  0  0  0  0  0  0  0  0  0  0  0
   -1.5370    6.8167    2.9643 H   0  0  0  0  0  0  0  0  0  0  0  0
    0.3304    3.7510    0.0126 H   0  0  0  0  0  0  0  0  0  0  0  0
    0.1599    1.7605   -1.1273 H   0  0  0  0  0  0  0  0  0  0  0  0
   -0.7202    0.3406   -1.5364 H   0  0  0  0  0  0  0  0  0  0  0  0
    1.3273    0.6155    0.7481 H   0  0  0  0  0  0  0  0  0  0  0  0
    0.4876   -0.8837    0.3845 H   0  0  0  0  0  0  0  0  0  0  0  0
    1.4094   -0.8667   -1.9262 H   0  0  0  0  0  0  0  0  0  0  0  0
    2.3421    0.5897   -1.5814 H   0  0  0  0  0  0  0  0  0  0  0  0
    4.1368   -1.0758    1.1562 H   0  0  0  0  0  0  0  0  0  0  0  0
    3.5176    0.4961    0.6820 H   0  0  0  0  0  0  0  0  0  0  0  0
    5.1467    0.5439   -1.2457 H   0  0  0  0  0  0  0  0  0  0  0  0
    5.9537    0.3896    0.3145 H   0  0  0  0  0  0  0  0  0  0  0  0
    5.5719   -2.9419   -1.9935 H   0  0  0  0  0  0  0  0  0  0  0  0
    4.9930   -3.0304   -0.3292 H   0  0  0  0  0  0  0  0  0  0  0  0
    3.1126   -2.7154   -2.0018 H   0  0  0  0  0  0  0  0  0  0  0  0
    3.8655   -1.1936   -2.5173 H   0  0  0  0  0  0  0  0  0  0  0  0
   -1.2257   -1.7103   -1.1954 H   0  0  0  0  0  0  0  0  0  0  0  0
   -2.7512   -0.9605   -1.7291 H   0  0  0  0  0  0  0  0  0  0  0  0
   -2.2114   -3.7418   -1.3318 H   0  0  0  0  0  0  0  0  0  0  0  0
   -4.0084   -2.8340   -2.8041 H   0  0  0  0  0  0  0  0  0  0  0  0
   -4.6570   -4.0672   -1.7147 H   0  0  0  0  0  0  0  0  0  0  0  0
   -4.9584   -2.3527   -1.3882 H   0  0  0  0  0  0  0  0  0  0  0  0
  1  2  2  0
  2  3  1  0
  3  4  2  0
  4  5  1  0
  5  6  2  0
  6  7  1  0
  7  8  2  0
  8  9  1  0
  9 10  1  0
 10 11  1  0
 11 12  1  0
 11 13  2  0
 10 14  2  0
 14 15  1  0
 15 16  2  0
 16 17  1  0
 17 18  1  0
 18 19  1  0
 19 20  1  0
 20 21  1  0
 21 22  1  0
 22 23  1  0
 23 24  1  0
 24 25  1  0
  4 26  1  0
 26 27  1  0
 27 28  1  0
 27  2  1  0
 16  5  1  0
 25 20  1  0
 15  8  1  0
  1 29  1  0
  1 30  1  0
  3 31  1  0
 12 32  1  0
 12 33  1  0
 14 34  1  0
 17 35  1  0
 17 36  1  0
 18 37  1  0
 18 38  1  0
 19 39  1  0
 19 40  1  0
 21 41  1  0
 21 42  1  0
 22 43  1  0
 22 44  1  0
 24 45  1  0
 24 46  1  0
 25 47  1  0
 25 48  1  0
 26 49  1  0
 26 50  1  0
 27 51  1  0
 28 52  1  0
 28 53  1  0
 28 54  1  0
M  END
$$$$
