
     RDKit          3D

 51 54  0  0  0  0  0  0  0  0999 V2000
    2.7285   -2.0320   -3.3313 C   0  0  0  0  0  0  0  0  0  0  0  0
    2.4242   -0.9711   -2.3859 N   0  0  0  0  0  0  0  0  0  0  0  0
    1.1690   -0.8169   -1.7504 C   0  0  0  0  0  0  0  0  0  0  0  0
    1.0257   -0.3304   -0.4847 C   0  0  0  0  0  0  0  0  0  0  0  0
    2.2107    0.0546    0.3128 C   0  0  0  0  0  0  0  0  0  0  0  0
    2.7202   -0.8248    1.2782 C   0  0  0  0  0  0  0  0  0  0  0  0
    3.8327   -0.4646    2.0414 C   0  0  0  0  0  0  0  0  0  0  0  0
    4.4383    0.7778    1.8320 C   0  0  0  0  0  0  0  0  0  0  0  0
    5.8279    1.2508    2.8188 S   0  0  0  0  0  0  0  0  0  0  0  0
    7.1143    0.7054    1.8870 N   0  0  0  0  0  0  0  0  0  0  0  0
    5.9329    2.6910    2.8353 O   0  0  0  0  0  0  0  0  0  0  0  0
    5.8489    0.4575    4.0253 O   0  0  0  0  0  0  0  0  0  0  0  0
    3.9293    1.6701    0.8840 C   0  0  0  0  0  0  0  0  0  0  0  0
    2.8163    1.3050    0.1242 C   0  0  0  0  0  0  0  0  0  0  0  0
   -0.3049   -0.1658    0.0907 C   0  0  0  0  0  0  0  0  0  0  0  0
   -1.3935   -0.6189   -0.5490 C   0  0  0  0  0  0  0  0  0  0  0  0
   -2.7403   -0.4666    0.0329 C   0  0  0  0  0  0  0  0  0  0  0  0
   -3.5764   -1.5813    0.1614 C   0  0  0  0  0  0  0  0  0  0  0  0
   -4.8585   -1.4514    0.7016 C   0  0  0  0  0  0  0  0  0  0  0  0
   -5.3350   -0.2005    1.1207 C   0  0  0  0  0  0  0  0  0  0  0  0
   -6.6206   -0.0522    1.6658 C   0  0  0  0  0  0  0  0  0  0  0  0
   -7.0813    1.1998    2.0760 C   0  0  0  0  0  0  0  0  0  0  0  0
   -6.2637    2.3185    1.9461 C   0  0  0  0  0  0  0  0  0  0  0  0
   -4.9831    2.1876    1.4062 C   0  0  0  0  0  0  0  0  0  0  0  0
   -4.5034    0.9349    0.9897 C   0  0  0  0  0  0  0  0  0  0  0  0
   -3.2159    0.7871    0.4446 C   0  0  0  0  0  0  0  0  0  0  0  0
   -1.2842   -1.2689   -1.7594 N   0  0  0  0  0  0  0  0  0  0  0  0
   -0.1036   -1.1794   -2.5844 C   0  0  0  0  0  0  0  0  0  0  0  0
   -0.2049   -0.2627   -3.7128 N   0  0  0  0  0  0  0  0  0  0  0  0
    3.7798   -1.9635   -3.6272 H   0  0  0  0  0  0  0  0  0  0  0  0
    2.1239   -1.9506   -4.2387 H   0  0  0  0  0  0  0  0  0  0  0  0
    2.5654   -3.0134   -2.8752 H   0  0  0  0  0  0  0  0  0  0  0  0
    3.1932   -0.8155   -1.7345 H   0  0  0  0  0  0  0  0  0  0  0  0
    2.2474   -1.7918    1.4394 H   0  0  0  0  0  0  0  0  0  0  0  0
    4.2149   -1.1516    2.7932 H   0  0  0  0  0  0  0  0  0  0  0  0
    7.6882    1.4977    1.5967 H   0  0  0  0  0  0  0  0  0  0  0  0
    7.6311   -0.0094    2.4002 H   0  0  0  0  0  0  0  0  0  0  0  0
    4.3877    2.6450    0.7336 H   0  0  0  0  0  0  0  0  0  0  0  0
    2.4200    1.9964   -0.6168 H   0  0  0  0  0  0  0  0  0  0  0  0
   -0.3776    0.3223    1.0583 H   0  0  0  0  0  0  0  0  0  0  0  0
   -3.2262   -2.5626   -0.1521 H   0  0  0  0  0  0  0  0  0  0  0  0
   -5.4818   -2.3378    0.7930 H   0  0  0  0  0  0  0  0  0  0  0  0
   -7.2744   -0.9146    1.7746 H   0  0  0  0  0  0  0  0  0  0  0  0
   -8.0786    1.3003    2.4963 H   0  0  0  0  0  0  0  0  0  0  0  0
   -6.6213    3.2941    2.2646 H   0  0  0  0  0  0  0  0  0  0  0  0
   -4.3595    3.0738    1.3126 H   0  0  0  0  0  0  0  0  0  0  0  0
   -2.5793    1.6621    0.3305 H   0  0  0  0  0  0  0  0  0  0  0  0
   -2.1351   -1.2593   -2.3119 H   0  0  0  0  0  0  0  0  0  0  0  0
    0.0485   -2.1843   -2.9943 H   0  0  0  0  0  0  0  0  0  0  0  0
   -0.4664    0.6320   -3.3042 H   0  0  0  0  0  0  0  0  0  0  0  0
    0.7504   -0.1219   -4.0424 H   0  0  0  0  0  0  0  0  0  0  0  0
  1  2  1  0
  2  3  1  0
  3  4  2  0
  4  5  1  0
  5  6  2  0
  6  7  1  0
  7  8  2  0
  8  9  1  0
  9 10  1  0
  9 11  2  0
  9 12  2  0
  8 13  1  0
 13 14  2  0
  4 15  1  0
 15 16  2  0
 16 17  1  0
 17 18  2  0
 18 19  1  0
 19 20  2  0
 20 21  1  0
 21 22  2  0
 22 23  1  0
 23 24  2  0
 24 25  1  0
 25 26  2  0
 16 27  1  0
 27 28  1  0
 28 29  1  0
 28  3  1  0
 14  5  1  0
 26 17  1  0
 25 20  1  0
  1 30  1  0
  1 31  1  0
  1 32  1  0
  2 33  1  0
  6 34  1  0
  7 35  1  0
 10 36  1  0
 10 37  1  0
 13 38  1  0
 14 39  1  0
 15 40  1  0
 18 41  1  0
 19 42  1  0
 21 43  1  0
 22 44  1  0
 23 45  1  0
 24 46  1  0
 26 47  1  0
 27 48  1  0
 28 49  1  0
 29 50  1  0
 29 51  1  0
M  END
$$$$
