
     RDKit          3D

 36 38  0  0  0  0  0  0  0  0999 V2000
    3.3021   -1.3241   -2.2660 C   0  0  0  0  0  0  0  0  0  0  0  0
    3.1894   -0.8624   -0.8384 C   0  0  0  0  0  0  0  0  0  0  0  0
    1.9261   -0.4470   -0.3666 C   0  0  0  0  0  0  0  0  0  0  0  0
    1.7506   -0.0279    0.9615 C   0  0  0  0  0  0  0  0  0  0  0  0
    0.4783    0.3850    1.4399 N   0  0  0  0  0  0  0  0  0  0  0  0
   -0.7182    0.4571    0.7633 C   0  0  0  0  0  0  0  0  0  0  0  0
   -1.6169    0.9064    1.6950 C   0  0  0  0  0  0  0  0  0  0  0  0
   -2.9243    1.1954    1.5663 N   0  0  0  0  0  0  0  0  0  0  0  0
   -3.9003    0.8829    0.5921 C   0  0  0  0  0  0  0  0  0  0  0  0
   -3.7349   -0.1460   -0.3447 C   0  0  0  0  0  0  0  0  0  0  0  0
   -4.7027   -0.3982   -1.3243 C   0  0  0  0  0  0  0  0  0  0  0  0
   -5.8552    0.3796   -1.3905 C   0  0  0  0  0  0  0  0  0  0  0  0
   -6.0459    1.4086   -0.4726 C   0  0  0  0  0  0  0  0  0  0  0  0
   -5.0783    1.6567    0.5058 C   0  0  0  0  0  0  0  0  0  0  0  0
   -5.3686    2.9489    1.6227 Cl  0  0  0  0  0  0  0  0  0  0  0  0
   -0.9760    1.1286    2.8752 N   0  0  0  0  0  0  0  0  0  0  0  0
    0.2974    0.7932    2.7207 N   0  0  0  0  0  0  0  0  0  0  0  0
    2.8482   -0.0222    1.8306 C   0  0  0  0  0  0  0  0  0  0  0  0
    4.1063   -0.4175    1.3712 C   0  0  0  0  0  0  0  0  0  0  0  0
    4.2909   -0.8200    0.0395 C   0  0  0  0  0  0  0  0  0  0  0  0
    5.6766   -1.1991   -0.3348 C   0  0  0  0  0  0  0  0  0  0  0  0
    6.5042   -1.6841    0.4145 O   0  0  0  0  0  0  0  0  0  0  0  0
    5.9898   -0.8752   -1.5998 O   0  0  0  0  0  0  0  0  0  0  0  0
    3.7503   -0.5413   -2.8853 H   0  0  0  0  0  0  0  0  0  0  0  0
    3.8949   -2.2418   -2.3341 H   0  0  0  0  0  0  0  0  0  0  0  0
    2.3176   -1.5595   -2.6856 H   0  0  0  0  0  0  0  0  0  0  0  0
    1.0901   -0.4680   -1.0613 H   0  0  0  0  0  0  0  0  0  0  0  0
   -0.8145    0.2223   -0.2819 H   0  0  0  0  0  0  0  0  0  0  0  0
   -3.3312    1.7256    2.3363 H   0  0  0  0  0  0  0  0  0  0  0  0
   -2.8700   -0.7999   -0.3062 H   0  0  0  0  0  0  0  0  0  0  0  0
   -4.5561   -1.2113   -2.0318 H   0  0  0  0  0  0  0  0  0  0  0  0
   -6.6057    0.1811   -2.1517 H   0  0  0  0  0  0  0  0  0  0  0  0
   -6.9468    2.0146   -0.5221 H   0  0  0  0  0  0  0  0  0  0  0  0
    2.7486    0.2897    2.8695 H   0  0  0  0  0  0  0  0  0  0  0  0
    4.9503   -0.4025    2.0600 H   0  0  0  0  0  0  0  0  0  0  0  0
    6.9336   -1.1275   -1.6795 H   0  0  0  0  0  0  0  0  0  0  0  0
  1  2  1  0
  2  3  2  0
  3  4  1  0
  4  5  1  0
  5  6  1  0
  6  7  2  0
  7  8  1  0
  8  9  1  0
  9 10  2  0
 10 11  1  0
 11 12  2  0
 12 13  1  0
 13 14  2  0
 14 15  1  0
  7 16  1  0
 16 17  2  0
  4 18  2  0
 18 19  1  0
 19 20  2  0
 20 21  1  0
 21 22  2  0
 21 23  1  0
 20  2  1  0
 17  5  1  0
 14  9  1  0
  1 24  1  0
  1 25  1  0
  1 26  1  0
  3 27  1  0
  6 28  1  0
  8 29  1  0
 10 30  1  0
 11 31  1  0
 12 32  1  0
 13 33  1  0
 18 34  1  0
 19 35  1  0
 23 36  1  0
M  END
$$$$
