
     RDKit          3D

 43 44  0  0  0  0  0  0  0  0999 V2000
    5.8453    0.1373   -1.0625 C   0  0  0  0  0  0  0  0  0  0  0  0
    4.6912   -0.0303   -0.4027 C   0  0  0  0  0  0  0  0  0  0  0  0
    4.3941   -1.1825    0.5085 C   0  0  0  0  0  0  0  0  0  0  0  0
    3.2257   -1.8433    0.0008 O   0  0  0  0  0  0  0  0  0  0  0  0
    2.5783   -2.5239    1.0077 C   0  0  0  0  0  0  0  0  0  0  0  0
    2.9849   -3.8024    1.4116 C   0  0  0  0  0  0  0  0  0  0  0  0
    4.3064   -4.6204    0.6607 Cl  0  0  0  0  0  0  0  0  0  0  0  0
    2.3030   -4.4575    2.4346 C   0  0  0  0  0  0  0  0  0  0  0  0
    1.2080   -3.8397    3.0350 C   0  0  0  0  0  0  0  0  0  0  0  0
    0.3694   -4.6521    4.3005 Cl  0  0  0  0  0  0  0  0  0  0  0  0
    0.7742   -2.5794    2.6161 C   0  0  0  0  0  0  0  0  0  0  0  0
    1.4474   -1.9173    1.5890 C   0  0  0  0  0  0  0  0  0  0  0  0
    1.0545   -0.6646    1.0808 N   0  0  0  0  0  0  0  0  0  0  0  0
    0.0210    0.1361    1.4706 C   0  0  0  0  0  0  0  0  0  0  0  0
   -0.7603   -0.0606    2.3881 O   0  0  0  0  0  0  0  0  0  0  0  0
    0.0134    1.2240    0.6612 O   0  0  0  0  0  0  0  0  0  0  0  0
   -1.0465    2.1723    0.8737 C   0  0  0  0  0  0  0  0  0  0  0  0
   -2.0396    2.0726   -0.2699 C   0  0  0  0  0  0  0  0  0  0  0  0
   -2.2762    3.1663   -1.0277 C   0  0  0  0  0  0  0  0  0  0  0  0
   -1.5404    4.2698   -0.7281 F   0  0  0  0  0  0  0  0  0  0  0  0
   -3.1036    3.3949   -2.1869 C   0  0  0  0  0  0  0  0  0  0  0  0
   -4.3714    3.0609   -2.4481 C   0  0  0  0  0  0  0  0  0  0  0  0
   -5.2794    2.3004   -1.7597 N   0  0  0  0  0  0  0  0  0  0  0  0
   -4.9525    1.2844   -0.7672 C   0  0  0  0  0  0  0  0  0  0  0  0
   -3.6998    0.4904   -1.1506 C   0  0  0  0  0  0  0  0  0  0  0  0
   -2.5831    0.8139   -0.3323 O   0  0  0  0  0  0  0  0  0  0  0  0
    6.6568   -0.5800   -0.9868 H   0  0  0  0  0  0  0  0  0  0  0  0
    5.9998    1.0047   -1.6981 H   0  0  0  0  0  0  0  0  0  0  0  0
    3.9107    0.7189   -0.5126 H   0  0  0  0  0  0  0  0  0  0  0  0
    5.2341   -1.8855    0.5361 H   0  0  0  0  0  0  0  0  0  0  0  0
    4.2271   -0.7911    1.5198 H   0  0  0  0  0  0  0  0  0  0  0  0
    2.6156   -5.4468    2.7574 H   0  0  0  0  0  0  0  0  0  0  0  0
   -0.0960   -2.1434    3.0967 H   0  0  0  0  0  0  0  0  0  0  0  0
    1.5735   -0.3172    0.2838 H   0  0  0  0  0  0  0  0  0  0  0  0
   -1.5677    2.0232    1.8265 H   0  0  0  0  0  0  0  0  0  0  0  0
   -0.5710    3.1555    0.9362 H   0  0  0  0  0  0  0  0  0  0  0  0
   -2.6077    4.0292   -2.9202 H   0  0  0  0  0  0  0  0  0  0  0  0
   -4.8061    3.4402   -3.3749 H   0  0  0  0  0  0  0  0  0  0  0  0
   -6.1403    2.1161   -2.2714 H   0  0  0  0  0  0  0  0  0  0  0  0
   -4.8542    1.7518    0.2179 H   0  0  0  0  0  0  0  0  0  0  0  0
   -5.8069    0.6008   -0.7148 H   0  0  0  0  0  0  0  0  0  0  0  0
   -3.9027   -0.5690   -0.9472 H   0  0  0  0  0  0  0  0  0  0  0  0
   -3.4289    0.5429   -2.2101 H   0  0  0  0  0  0  0  0  0  0  0  0
  1  2  2  0
  2  3  1  0
  3  4  1  0
  4  5  1  0
  5  6  2  0
  6  7  1  0
  6  8  1  0
  8  9  2  0
  9 10  1  0
  9 11  1  0
 11 12  2  0
 12 13  1  0
 13 14  1  0
 14 15  2  0
 14 16  1  0
 16 17  1  0
 17 18  1  0
 18 19  2  3
 19 20  1  0
 19 21  1  0
 21 22  2  3
 22 23  1  0
 23 24  1  0
 24 25  1  0
 25 26  1  0
 12  5  1  0
 26 18  1  0
  1 27  1  0
  1 28  1  0
  2 29  1  0
  3 30  1  0
  3 31  1  0
  8 32  1  0
 11 33  1  0
 13 34  1  0
 17 35  1  0
 17 36  1  0
 21 37  1  0
 22 38  1  0
 23 39  1  0
 24 40  1  0
 24 41  1  0
 25 42  1  0
 25 43  1  0
M  END
$$$$
