
     RDKit          3D

 52 53  0  0  0  0  0  0  0  0999 V2000
   -7.5838    1.4756   -2.4882 C   0  0  0  0  0  0  0  0  0  0  0  0
   -7.3579    1.2250   -1.0055 C   0  0  0  0  0  0  0  0  0  0  0  0
   -7.1473    2.5297   -0.2482 C   0  0  0  0  0  0  0  0  0  0  0  0
   -6.8177    2.2781    1.4964 S   0  0  0  0  0  0  0  0  0  0  0  0
   -7.8491    1.4185    2.0358 O   0  0  0  0  0  0  0  0  0  0  0  0
   -6.5249    3.5648    2.0915 O   0  0  0  0  0  0  0  0  0  0  0  0
   -5.4134    1.3634    1.4660 N   0  0  0  0  0  0  0  0  0  0  0  0
   -4.1820    2.0089    1.2215 C   0  0  0  0  0  0  0  0  0  0  0  0
   -3.0622    1.2888    1.0129 C   0  0  0  0  0  0  0  0  0  0  0  0
   -2.9791   -0.1678    1.0039 C   0  0  0  0  0  0  0  0  0  0  0  0
   -1.9396   -0.9697    0.7261 C   0  0  0  0  0  0  0  0  0  0  0  0
   -0.6316   -0.7443    0.4053 N   0  0  0  0  0  0  0  0  0  0  0  0
   -0.1618    0.2424   -0.2862 C   0  0  0  0  0  0  0  0  0  0  0  0
    1.1460    0.4119   -0.6627 N   0  0  0  0  0  0  0  0  0  0  0  0
    2.2472   -0.4534   -0.5579 C   0  0  0  0  0  0  0  0  0  0  0  0
    2.1778   -1.7587   -0.0614 C   0  0  0  0  0  0  0  0  0  0  0  0
    3.3246   -2.5571    0.0484 C   0  0  0  0  0  0  0  0  0  0  0  0
    4.5763   -2.0538   -0.3143 C   0  0  0  0  0  0  0  0  0  0  0  0
    5.7688   -2.9341   -0.1679 C   0  0  0  0  0  0  0  0  0  0  0  0
    5.6429   -4.1535   -0.1784 O   0  0  0  0  0  0  0  0  0  0  0  0
    6.9763   -2.2972    0.0167 N   0  0  0  0  0  0  0  0  0  0  0  0
    8.1638   -3.0492    0.3833 C   0  0  0  0  0  0  0  0  0  0  0  0
    9.4273   -2.2357    0.1191 C   0  0  0  0  0  0  0  0  0  0  0  0
    9.3822   -1.0214    0.8725 O   0  0  0  0  0  0  0  0  0  0  0  0
    4.6675   -0.7519   -0.8106 C   0  0  0  0  0  0  0  0  0  0  0  0
    3.5148    0.0365   -0.9228 C   0  0  0  0  0  0  0  0  0  0  0  0
   -1.1126    1.6063   -0.8595 S   0  0  0  0  0  0  0  0  0  0  0  0
   -1.7851    2.0516    0.7603 C   0  0  0  0  0  0  0  0  0  0  0  0
   -8.4652    2.1051   -2.6516 H   0  0  0  0  0  0  0  0  0  0  0  0
   -7.7415    0.5269   -3.0134 H   0  0  0  0  0  0  0  0  0  0  0  0
   -6.7177    1.9718   -2.9376 H   0  0  0  0  0  0  0  0  0  0  0  0
   -8.2211    0.6893   -0.5952 H   0  0  0  0  0  0  0  0  0  0  0  0
   -6.4910    0.5655   -0.8851 H   0  0  0  0  0  0  0  0  0  0  0  0
   -8.0444    3.1557   -0.3018 H   0  0  0  0  0  0  0  0  0  0  0  0
   -6.3111    3.1038   -0.6602 H   0  0  0  0  0  0  0  0  0  0  0  0
   -5.5327    0.3583    1.5499 H   0  0  0  0  0  0  0  0  0  0  0  0
   -4.1817    3.0977    1.2082 H   0  0  0  0  0  0  0  0  0  0  0  0
   -3.8911   -0.7054    1.2487 H   0  0  0  0  0  0  0  0  0  0  0  0
   -2.1440   -2.0388    0.8075 H   0  0  0  0  0  0  0  0  0  0  0  0
    1.3058    1.2395   -1.2197 H   0  0  0  0  0  0  0  0  0  0  0  0
    1.2322   -2.1959    0.2454 H   0  0  0  0  0  0  0  0  0  0  0  0
    3.2325   -3.5729    0.4283 H   0  0  0  0  0  0  0  0  0  0  0  0
    6.9701   -1.3361    0.3367 H   0  0  0  0  0  0  0  0  0  0  0  0
    8.0723   -3.2727    1.4525 H   0  0  0  0  0  0  0  0  0  0  0  0
    8.1887   -3.9943   -0.1688 H   0  0  0  0  0  0  0  0  0  0  0  0
    9.5108   -1.9748   -0.9414 H   0  0  0  0  0  0  0  0  0  0  0  0
   10.3135   -2.8011    0.4221 H   0  0  0  0  0  0  0  0  0  0  0  0
   10.2238   -0.5605    0.7087 H   0  0  0  0  0  0  0  0  0  0  0  0
    5.6198   -0.3379   -1.1286 H   0  0  0  0  0  0  0  0  0  0  0  0
    3.6205    1.0501   -1.3040 H   0  0  0  0  0  0  0  0  0  0  0  0
   -1.9596    3.1335    0.7430 H   0  0  0  0  0  0  0  0  0  0  0  0
   -1.0563    1.8734    1.5600 H   0  0  0  0  0  0  0  0  0  0  0  0
  1  2  1  0
  2  3  1  0
  3  4  1  0
  4  5  2  0
  4  6  2  0
  4  7  1  0
  7  8  1  0
  8  9  2  3
  9 10  1  0
 10 11  2  0
 11 12  1  0
 12 13  2  0
 13 14  1  0
 14 15  1  0
 15 16  2  0
 16 17  1  0
 17 18  2  0
 18 19  1  0
 19 20  2  0
 19 21  1  0
 21 22  1  0
 22 23  1  0
 23 24  1  0
 18 25  1  0
 25 26  2  0
 13 27  1  0
 27 28  1  0
 28  9  1  0
 26 15  1  0
  1 29  1  0
  1 30  1  0
  1 31  1  0
  2 32  1  0
  2 33  1  0
  3 34  1  0
  3 35  1  0
  7 36  1  0
  8 37  1  0
 10 38  1  0
 11 39  1  0
 14 40  1  0
 16 41  1  0
 17 42  1  0
 21 43  1  0
 22 44  1  0
 22 45  1  0
 23 46  1  0
 23 47  1  0
 24 48  1  0
 25 49  1  0
 26 50  1  0
 28 51  1  0
 28 52  1  0
M  END
$$$$
