
     RDKit          3D

 40 42  0  0  0  0  0  0  0  0999 V2000
    7.1441    0.3668   -1.2947 N   0  0  0  0  0  0  0  0  0  0  0  0
    6.7036    0.2174    0.0004 C   0  0  0  0  0  0  0  0  0  0  0  0
    7.6277    0.1855    0.9649 N   0  0  0  0  0  0  0  0  0  0  0  0
    7.1916    0.0439    2.2311 C   0  0  0  0  0  0  0  0  0  0  0  0
    5.8678   -0.0539    2.5636 C   0  0  0  0  0  0  0  0  0  0  0  0
    5.0028    0.0066    1.4958 C   0  0  0  0  0  0  0  0  0  0  0  0
    3.5248   -0.0850    1.7282 C   0  0  0  0  0  0  0  0  0  0  0  0
    3.0922   -0.1913    2.8694 O   0  0  0  0  0  0  0  0  0  0  0  0
    2.7909   -0.0313    0.5609 N   0  0  0  0  0  0  0  0  0  0  0  0
    1.3922   -0.0864    0.3897 C   0  0  0  0  0  0  0  0  0  0  0  0
    0.5007   -0.2252    1.4525 C   0  0  0  0  0  0  0  0  0  0  0  0
   -0.8799   -0.2747    1.2195 C   0  0  0  0  0  0  0  0  0  0  0  0
   -1.3978   -0.1863   -0.0777 C   0  0  0  0  0  0  0  0  0  0  0  0
   -2.8011   -0.2433   -0.2121 N   0  0  0  0  0  0  0  0  0  0  0  0
   -3.5372   -0.2146   -1.3803 C   0  0  0  0  0  0  0  0  0  0  0  0
   -3.0928   -0.1053   -2.5175 O   0  0  0  0  0  0  0  0  0  0  0  0
   -5.0202   -0.2525   -1.2212 C   0  0  0  0  0  0  0  0  0  0  0  0
   -5.7444    0.6000   -2.0762 C   0  0  0  0  0  0  0  0  0  0  0  0
   -7.1351    0.6582   -2.0180 C   0  0  0  0  0  0  0  0  0  0  0  0
   -7.8187   -0.1410   -1.1076 C   0  0  0  0  0  0  0  0  0  0  0  0
   -7.1142   -1.0053   -0.2623 C   0  0  0  0  0  0  0  0  0  0  0  0
   -8.0538   -1.9659    0.8305 Cl  0  0  0  0  0  0  0  0  0  0  0  0
   -5.7099   -1.0747   -0.3139 C   0  0  0  0  0  0  0  0  0  0  0  0
   -4.8677   -2.1946    0.7118 Cl  0  0  0  0  0  0  0  0  0  0  0  0
   -0.5124   -0.0473   -1.1449 C   0  0  0  0  0  0  0  0  0  0  0  0
    0.8677    0.0017   -0.9121 C   0  0  0  0  0  0  0  0  0  0  0  0
    1.9180    0.1809   -2.2807 Cl  0  0  0  0  0  0  0  0  0  0  0  0
    5.3899    0.1506    0.2037 N   0  0  0  0  0  0  0  0  0  0  0  0
    8.0683    0.7754   -1.3057 H   0  0  0  0  0  0  0  0  0  0  0  0
    6.4385    0.7943   -1.8763 H   0  0  0  0  0  0  0  0  0  0  0  0
    7.9686    0.0106    2.9895 H   0  0  0  0  0  0  0  0  0  0  0  0
    5.5307   -0.1688    3.5844 H   0  0  0  0  0  0  0  0  0  0  0  0
    3.3464    0.0587   -0.2908 H   0  0  0  0  0  0  0  0  0  0  0  0
    0.8452   -0.3010    2.4792 H   0  0  0  0  0  0  0  0  0  0  0  0
   -1.5397   -0.3872    2.0772 H   0  0  0  0  0  0  0  0  0  0  0  0
   -3.3177   -0.3596    0.6525 H   0  0  0  0  0  0  0  0  0  0  0  0
   -5.2165    1.2263   -2.7959 H   0  0  0  0  0  0  0  0  0  0  0  0
   -7.6818    1.3229   -2.6836 H   0  0  0  0  0  0  0  0  0  0  0  0
   -8.9051   -0.0935   -1.0654 H   0  0  0  0  0  0  0  0  0  0  0  0
   -0.8657    0.0256   -2.1680 H   0  0  0  0  0  0  0  0  0  0  0  0
  1  2  1  0
  2  3  2  0
  3  4  1  0
  4  5  2  0
  5  6  1  0
  6  7  1  0
  7  8  2  0
  7  9  1  0
  9 10  1  0
 10 11  2  0
 11 12  1  0
 12 13  2  0
 13 14  1  0
 14 15  1  0
 15 16  2  0
 15 17  1  0
 17 18  2  0
 18 19  1  0
 19 20  2  0
 20 21  1  0
 21 22  1  0
 21 23  2  0
 23 24  1  0
 13 25  1  0
 25 26  2  0
 26 27  1  0
  6 28  2  0
 28  2  1  0
 26 10  1  0
 23 17  1  0
  1 29  1  0
  1 30  1  0
  4 31  1  0
  5 32  1  0
  9 33  1  0
 11 34  1  0
 12 35  1  0
 14 36  1  0
 18 37  1  0
 19 38  1  0
 20 39  1  0
 25 40  1  0
M  END
$$$$
