
     RDKit          3D

 52 54  0  0  0  0  0  0  0  0999 V2000
    1.2437   -0.0288    1.8334 C   0  0  0  0  0  0  0  0  0  0  0  0
    1.9750    0.7137    0.8351 N   0  0  0  0  0  0  0  0  0  0  0  0
    1.6657    0.8058   -0.4093 C   0  0  0  0  0  0  0  0  0  0  0  0
    0.3836    0.3360   -1.1103 C   0  0  0  0  0  0  0  0  0  0  0  0
   -0.7619    0.1920   -0.3491 N   0  0  0  0  0  0  0  0  0  0  0  0
   -1.9772   -0.3737   -0.7082 C   0  0  0  0  0  0  0  0  0  0  0  0
   -2.1669   -0.9796   -1.7545 O   0  0  0  0  0  0  0  0  0  0  0  0
   -2.9215   -0.1577    0.2871 N   0  0  0  0  0  0  0  0  0  0  0  0
   -4.2630   -0.6190    0.3402 C   0  0  0  0  0  0  0  0  0  0  0  0
   -4.7605   -1.5422   -0.5858 C   0  0  0  0  0  0  0  0  0  0  0  0
   -6.0808   -1.9850   -0.5175 C   0  0  0  0  0  0  0  0  0  0  0  0
   -6.9258   -1.5130    0.4798 C   0  0  0  0  0  0  0  0  0  0  0  0
   -6.4624   -0.5933    1.4339 C   0  0  0  0  0  0  0  0  0  0  0  0
   -7.4237   -0.1353    2.5010 C   0  0  0  0  0  0  0  0  0  0  0  0
   -5.1169   -0.1445    1.3771 C   0  0  0  0  0  0  0  0  0  0  0  0
   -4.5907    0.8221    2.4101 C   0  0  0  0  0  0  0  0  0  0  0  0
    0.4146    0.1942   -2.4468 C   0  0  0  0  0  0  0  0  0  0  0  0
    1.5569    0.5801   -3.2272 C   0  0  0  0  0  0  0  0  0  0  0  0
    2.5778    1.2057   -2.6346 C   0  0  0  0  0  0  0  0  0  0  0  0
    2.6177    1.3897   -1.2599 N   0  0  0  0  0  0  0  0  0  0  0  0
    3.7277    2.0238   -0.6951 C   0  0  0  0  0  0  0  0  0  0  0  0
    3.6609    3.1657   -0.2322 O   0  0  0  0  0  0  0  0  0  0  0  0
    5.0274    1.2671   -0.7551 C   0  0  0  0  0  0  0  0  0  0  0  0
    4.9700   -0.0278   -1.1879 N   0  0  0  0  0  0  0  0  0  0  0  0
    6.1311   -0.7262   -1.2448 C   0  0  0  0  0  0  0  0  0  0  0  0
    6.0512   -2.1486   -1.7126 C   0  0  0  0  0  0  0  0  0  0  0  0
    7.3651   -0.1629   -0.9107 C   0  0  0  0  0  0  0  0  0  0  0  0
    7.4064    1.1593   -0.4782 C   0  0  0  0  0  0  0  0  0  0  0  0
    6.2222    1.8843   -0.3917 C   0  0  0  0  0  0  0  0  0  0  0  0
    6.2879    3.1629    0.0049 F   0  0  0  0  0  0  0  0  0  0  0  0
    0.7782   -0.9389    1.4405 H   0  0  0  0  0  0  0  0  0  0  0  0
    0.4944    0.6020    2.3242 H   0  0  0  0  0  0  0  0  0  0  0  0
    1.9431   -0.3556    2.6084 H   0  0  0  0  0  0  0  0  0  0  0  0
   -0.6856    0.5171    0.5995 H   0  0  0  0  0  0  0  0  0  0  0  0
   -2.6654    0.5271    0.9780 H   0  0  0  0  0  0  0  0  0  0  0  0
   -4.1397   -1.9533   -1.3788 H   0  0  0  0  0  0  0  0  0  0  0  0
   -6.4449   -2.7091   -1.2430 H   0  0  0  0  0  0  0  0  0  0  0  0
   -7.9514   -1.8781    0.5162 H   0  0  0  0  0  0  0  0  0  0  0  0
   -7.5100    0.9558    2.4972 H   0  0  0  0  0  0  0  0  0  0  0  0
   -8.4303   -0.5348    2.3367 H   0  0  0  0  0  0  0  0  0  0  0  0
   -7.0883   -0.4832    3.4851 H   0  0  0  0  0  0  0  0  0  0  0  0
   -5.3329    1.1063    3.1589 H   0  0  0  0  0  0  0  0  0  0  0  0
   -3.7543    0.3671    2.9524 H   0  0  0  0  0  0  0  0  0  0  0  0
   -4.2569    1.7451    1.9254 H   0  0  0  0  0  0  0  0  0  0  0  0
   -0.4570   -0.1038   -3.0190 H   0  0  0  0  0  0  0  0  0  0  0  0
    1.5302    0.4312   -4.3018 H   0  0  0  0  0  0  0  0  0  0  0  0
    3.4170    1.5848   -3.2091 H   0  0  0  0  0  0  0  0  0  0  0  0
    5.0089   -2.4833   -1.7641 H   0  0  0  0  0  0  0  0  0  0  0  0
    6.4946   -2.2409   -2.7104 H   0  0  0  0  0  0  0  0  0  0  0  0
    6.5846   -2.8081   -1.0174 H   0  0  0  0  0  0  0  0  0  0  0  0
    8.2823   -0.7421   -0.9844 H   0  0  0  0  0  0  0  0  0  0  0  0
    8.3500    1.6296   -0.2077 H   0  0  0  0  0  0  0  0  0  0  0  0
  1  2  1  0
  2  3  2  3
  3  4  1  0
  4  5  1  0
  5  6  1  0
  6  7  2  0
  6  8  1  0
  8  9  1  0
  9 10  2  0
 10 11  1  0
 11 12  2  0
 12 13  1  0
 13 14  1  0
 13 15  2  0
 15 16  1  0
  4 17  2  0
 17 18  1  0
 18 19  2  0
 19 20  1  0
 20 21  1  0
 21 22  2  0
 21 23  1  0
 23 24  2  0
 24 25  1  0
 25 26  1  0
 25 27  2  0
 27 28  1  0
 28 29  2  0
 29 30  1  0
 20  3  1  0
 29 23  1  0
 15  9  1  0
  1 31  1  0
  1 32  1  0
  1 33  1  0
  5 34  1  0
  8 35  1  0
 10 36  1  0
 11 37  1  0
 12 38  1  0
 14 39  1  0
 14 40  1  0
 14 41  1  0
 16 42  1  0
 16 43  1  0
 16 44  1  0
 17 45  1  0
 18 46  1  0
 19 47  1  0
 26 48  1  0
 26 49  1  0
 26 50  1  0
 27 51  1  0
 28 52  1  0
M  END
$$$$
