
     RDKit          3D

 34 35  0  0  0  0  0  0  0  0999 V2000
    2.5654    3.3638    2.1648 C   0  0  0  0  0  0  0  0  0  0  0  0
    1.9576    3.4245    0.9724 C   0  0  0  0  0  0  0  0  0  0  0  0
    1.2329    2.2987    0.3238 C   0  0  0  0  0  0  0  0  0  0  0  0
    0.3462    2.5518   -0.4852 O   0  0  0  0  0  0  0  0  0  0  0  0
    1.7145    1.0543    0.6319 N   0  0  0  0  0  0  0  0  0  0  0  0
    1.2403   -0.2076    0.1643 C   0  0  0  0  0  0  0  0  0  0  0  0
   -0.0478   -0.5006   -0.2999 C   0  0  0  0  0  0  0  0  0  0  0  0
   -1.0929    0.4500   -0.1871 N   0  0  0  0  0  0  0  0  0  0  0  0
   -2.4462    0.2205   -0.5367 C   0  0  0  0  0  0  0  0  0  0  0  0
   -2.9803    0.9112   -1.6382 C   0  0  0  0  0  0  0  0  0  0  0  0
   -4.2918    0.6852   -2.0643 C   0  0  0  0  0  0  0  0  0  0  0  0
   -5.0916   -0.2393   -1.3983 C   0  0  0  0  0  0  0  0  0  0  0  0
   -4.5818   -0.9346   -0.3023 C   0  0  0  0  0  0  0  0  0  0  0  0
   -3.2681   -0.7104    0.1273 C   0  0  0  0  0  0  0  0  0  0  0  0
   -2.7430   -1.5542    1.5468 Cl  0  0  0  0  0  0  0  0  0  0  0  0
   -0.3653   -1.7303   -0.7644 N   0  0  0  0  0  0  0  0  0  0  0  0
    0.5729   -2.6779   -0.7194 C   0  0  0  0  0  0  0  0  0  0  0  0
    1.8124   -2.5299   -0.2524 N   0  0  0  0  0  0  0  0  0  0  0  0
    2.1222   -1.2968    0.1895 C   0  0  0  0  0  0  0  0  0  0  0  0
    3.8002   -1.0707    0.8231 S   0  0  0  0  0  0  0  0  0  0  0  0
    4.4437   -2.7605    0.6870 C   0  0  0  0  0  0  0  0  0  0  0  0
    3.0402    4.2490    2.5786 H   0  0  0  0  0  0  0  0  0  0  0  0
    2.5832    2.4674    2.7759 H   0  0  0  0  0  0  0  0  0  0  0  0
    1.9062    4.3622    0.4269 H   0  0  0  0  0  0  0  0  0  0  0  0
    2.6314    1.0147    1.0674 H   0  0  0  0  0  0  0  0  0  0  0  0
   -0.7551    1.3474   -0.5487 H   0  0  0  0  0  0  0  0  0  0  0  0
   -2.3664    1.6263   -2.1815 H   0  0  0  0  0  0  0  0  0  0  0  0
   -4.6837    1.2284   -2.9205 H   0  0  0  0  0  0  0  0  0  0  0  0
   -6.1116   -0.4169   -1.7289 H   0  0  0  0  0  0  0  0  0  0  0  0
   -5.2136   -1.6470    0.2213 H   0  0  0  0  0  0  0  0  0  0  0  0
    0.2955   -3.6586   -1.0901 H   0  0  0  0  0  0  0  0  0  0  0  0
    3.8515   -3.4518    1.2929 H   0  0  0  0  0  0  0  0  0  0  0  0
    4.4505   -3.0913   -0.3552 H   0  0  0  0  0  0  0  0  0  0  0  0
    5.4725   -2.7770    1.0570 H   0  0  0  0  0  0  0  0  0  0  0  0
  1  2  2  0
  2  3  1  0
  3  4  2  0
  3  5  1  0
  5  6  1  0
  6  7  2  0
  7  8  1  0
  8  9  1  0
  9 10  2  0
 10 11  1  0
 11 12  2  0
 12 13  1  0
 13 14  2  0
 14 15  1  0
  7 16  1  0
 16 17  2  0
 17 18  1  0
 18 19  2  0
 19 20  1  0
 20 21  1  0
 19  6  1  0
 14  9  1  0
  1 22  1  0
  1 23  1  0
  2 24  1  0
  5 25  1  0
  8 26  1  0
 10 27  1  0
 11 28  1  0
 12 29  1  0
 13 30  1  0
 17 31  1  0
 21 32  1  0
 21 33  1  0
 21 34  1  0
M  END
$$$$
