
     RDKit          3D

 40 43  0  0  0  0  0  0  0  0999 V2000
   -0.3122   -1.0575    1.2273 O   0  0  0  0  0  0  0  0  0  0  0  0
    0.2861   -0.2001    0.5894 C   0  0  0  0  0  0  0  0  0  0  0  0
   -0.2697    0.8127   -0.1718 N   0  0  0  0  0  0  0  0  0  0  0  0
   -1.6373    1.0230   -0.4520 C   0  0  0  0  0  0  0  0  0  0  0  0
   -1.9718    2.1904   -1.1485 C   0  0  0  0  0  0  0  0  0  0  0  0
   -3.3004    2.4698   -1.4691 C   0  0  0  0  0  0  0  0  0  0  0  0
   -4.3084    1.5807   -1.0980 C   0  0  0  0  0  0  0  0  0  0  0  0
   -3.9986    0.4041   -0.4047 C   0  0  0  0  0  0  0  0  0  0  0  0
   -5.0626   -0.5210   -0.0295 C   0  0  0  0  0  0  0  0  0  0  0  0
   -6.3182   -0.7653   -0.6570 C   0  0  0  0  0  0  0  0  0  0  0  0
   -6.9815   -1.7233    0.0776 C   0  0  0  0  0  0  0  0  0  0  0  0
   -6.1807   -2.0709    1.1316 N   0  0  0  0  0  0  0  0  0  0  0  0
   -5.0191   -1.3450    1.0799 C   0  0  0  0  0  0  0  0  0  0  0  0
   -2.6547    0.1343   -0.0914 C   0  0  0  0  0  0  0  0  0  0  0  0
    1.7753   -0.1843    0.6540 C   0  0  0  0  0  0  0  0  0  0  0  0
    2.5566    0.1703   -0.4524 C   0  0  0  0  0  0  0  0  0  0  0  0
    3.9524    0.1735   -0.3495 C   0  0  0  0  0  0  0  0  0  0  0  0
    4.5857   -0.1843    0.8507 C   0  0  0  0  0  0  0  0  0  0  0  0
    6.0430   -0.1751    0.9444 C   0  0  0  0  0  0  0  0  0  0  0  0
    6.8474    0.1905   -0.1161 N   0  0  0  0  0  0  0  0  0  0  0  0
    8.0627    0.0667    0.3595 C   0  0  0  0  0  0  0  0  0  0  0  0
    8.0008   -0.3513    1.6479 N   0  0  0  0  0  0  0  0  0  0  0  0
    6.7315   -0.5101    2.0490 N   0  0  0  0  0  0  0  0  0  0  0  0
    3.7933   -0.5566    1.9467 C   0  0  0  0  0  0  0  0  0  0  0  0
    2.3980   -0.5625    1.8486 C   0  0  0  0  0  0  0  0  0  0  0  0
    0.3590    1.5315   -0.5047 H   0  0  0  0  0  0  0  0  0  0  0  0
   -1.2060    2.9009   -1.4471 H   0  0  0  0  0  0  0  0  0  0  0  0
   -3.5523    3.3813   -2.0046 H   0  0  0  0  0  0  0  0  0  0  0  0
   -5.3391    1.8215   -1.3459 H   0  0  0  0  0  0  0  0  0  0  0  0
   -6.6959   -0.2997   -1.5578 H   0  0  0  0  0  0  0  0  0  0  0  0
   -7.9488   -2.1865   -0.0615 H   0  0  0  0  0  0  0  0  0  0  0  0
   -6.4080   -2.7552    1.8413 H   0  0  0  0  0  0  0  0  0  0  0  0
   -4.2632   -1.4783    1.8433 H   0  0  0  0  0  0  0  0  0  0  0  0
   -2.4160   -0.7916    0.4212 H   0  0  0  0  0  0  0  0  0  0  0  0
    2.1014    0.4160   -1.4080 H   0  0  0  0  0  0  0  0  0  0  0  0
    4.5493    0.4473   -1.2184 H   0  0  0  0  0  0  0  0  0  0  0  0
    8.9883    0.2584   -0.1636 H   0  0  0  0  0  0  0  0  0  0  0  0
    8.7552   -0.5435    2.2969 H   0  0  0  0  0  0  0  0  0  0  0  0
    4.2592   -0.8496    2.8860 H   0  0  0  0  0  0  0  0  0  0  0  0
    1.7992   -0.8611    2.7071 H   0  0  0  0  0  0  0  0  0  0  0  0
  1  2  2  0
  2  3  1  0
  3  4  1  0
  4  5  2  0
  5  6  1  0
  6  7  2  0
  7  8  1  0
  8  9  1  0
  9 10  1  0
 10 11  2  0
 11 12  1  0
 12 13  1  0
  8 14  2  0
  2 15  1  0
 15 16  2  0
 16 17  1  0
 17 18  2  0
 18 19  1  0
 19 20  1  0
 20 21  2  0
 21 22  1  0
 22 23  1  0
 18 24  1  0
 24 25  2  0
 14  4  1  0
 25 15  1  0
 13  9  2  0
 23 19  2  0
  3 26  1  0
  5 27  1  0
  6 28  1  0
  7 29  1  0
 10 30  1  0
 11 31  1  0
 12 32  1  0
 13 33  1  0
 14 34  1  0
 16 35  1  0
 17 36  1  0
 21 37  1  0
 22 38  1  0
 24 39  1  0
 25 40  1  0
M  END
$$$$
