
     RDKit          3D

 39 40  0  0  0  0  0  0  0  0999 V2000
   -1.3519   -0.0391   -2.6166 C   0  0  0  0  0  0  0  0  0  0  0  0
   -1.1640   -1.1472   -1.1983 S   0  0  0  0  0  0  0  0  0  0  0  0
   -0.6587    0.0106    0.0014 C   0  0  0  0  0  0  0  0  0  0  0  0
   -1.4957    0.7994    0.7020 C   0  0  0  0  0  0  0  0  0  0  0  0
   -2.9616    0.8396    0.6218 C   0  0  0  0  0  0  0  0  0  0  0  0
   -3.5891    2.0329    0.2275 C   0  0  0  0  0  0  0  0  0  0  0  0
   -4.9839    2.1184    0.1595 C   0  0  0  0  0  0  0  0  0  0  0  0
   -5.7458    1.0074    0.4971 C   0  0  0  0  0  0  0  0  0  0  0  0
   -7.1122    1.0270    0.4533 O   0  0  0  0  0  0  0  0  0  0  0  0
   -5.1274   -0.1734    0.9005 C   0  0  0  0  0  0  0  0  0  0  0  0
   -5.8867   -1.2575    1.2383 O   0  0  0  0  0  0  0  0  0  0  0  0
   -3.7440   -0.2672    0.9709 C   0  0  0  0  0  0  0  0  0  0  0  0
    0.8280    0.1654    0.2680 C   0  0  0  0  0  0  0  0  0  0  0  0
    1.2519    1.1331    0.8918 O   0  0  0  0  0  0  0  0  0  0  0  0
    1.5904   -0.8615   -0.2522 N   0  0  0  0  0  0  0  0  0  0  0  0
    2.9871   -1.0306   -0.1970 C   0  0  0  0  0  0  0  0  0  0  0  0
    3.5091   -2.1773   -0.8120 C   0  0  0  0  0  0  0  0  0  0  0  0
    4.8823   -2.4283   -0.8109 C   0  0  0  0  0  0  0  0  0  0  0  0
    5.7495   -1.5318   -0.1921 C   0  0  0  0  0  0  0  0  0  0  0  0
    5.2433   -0.3833    0.4274 C   0  0  0  0  0  0  0  0  0  0  0  0
    6.2088    0.5392    1.0732 C   0  0  0  0  0  0  0  0  0  0  0  0
    7.4161    0.3863    1.1166 O   0  0  0  0  0  0  0  0  0  0  0  0
    5.6216    1.6100    1.6327 O   0  0  0  0  0  0  0  0  0  0  0  0
    3.8616   -0.1351    0.4233 C   0  0  0  0  0  0  0  0  0  0  0  0
   -2.1362    0.6996   -2.4329 H   0  0  0  0  0  0  0  0  0  0  0  0
   -0.4109    0.4767   -2.8274 H   0  0  0  0  0  0  0  0  0  0  0  0
   -1.6300   -0.6263   -3.4958 H   0  0  0  0  0  0  0  0  0  0  0  0
   -1.0850    1.5141    1.4158 H   0  0  0  0  0  0  0  0  0  0  0  0
   -2.9915    2.9049   -0.0314 H   0  0  0  0  0  0  0  0  0  0  0  0
   -5.4460    3.0498   -0.1509 H   0  0  0  0  0  0  0  0  0  0  0  0
   -7.3934    1.9120    0.1642 H   0  0  0  0  0  0  0  0  0  0  0  0
   -6.8098   -0.9576    1.1191 H   0  0  0  0  0  0  0  0  0  0  0  0
   -3.2891   -1.1973    1.2993 H   0  0  0  0  0  0  0  0  0  0  0  0
    1.0622   -1.5844   -0.7310 H   0  0  0  0  0  0  0  0  0  0  0  0
    2.8520   -2.8932   -1.3007 H   0  0  0  0  0  0  0  0  0  0  0  0
    5.2743   -3.3221   -1.2901 H   0  0  0  0  0  0  0  0  0  0  0  0
    6.8197   -1.7297   -0.1922 H   0  0  0  0  0  0  0  0  0  0  0  0
    6.3638    2.1203    2.0170 H   0  0  0  0  0  0  0  0  0  0  0  0
    3.4910    0.7605    0.9108 H   0  0  0  0  0  0  0  0  0  0  0  0
  1  2  1  0
  2  3  1  0
  3  4  2  0
  4  5  1  0
  5  6  2  0
  6  7  1  0
  7  8  2  0
  8  9  1  0
  8 10  1  0
 10 11  1  0
 10 12  2  0
  3 13  1  0
 13 14  2  0
 13 15  1  0
 15 16  1  0
 16 17  2  0
 17 18  1  0
 18 19  2  0
 19 20  1  0
 20 21  1  0
 21 22  2  0
 21 23  1  0
 20 24  2  0
 12  5  1  0
 24 16  1  0
  1 25  1  0
  1 26  1  0
  1 27  1  0
  4 28  1  0
  6 29  1  0
  7 30  1  0
  9 31  1  0
 11 32  1  0
 12 33  1  0
 15 34  1  0
 17 35  1  0
 18 36  1  0
 19 37  1  0
 23 38  1  0
 24 39  1  0
M  END
$$$$
