
     RDKit          3D

 42 45  0  0  0  0  0  0  0  0999 V2000
   -5.6596   -1.7847   -0.3386 N   0  0  0  0  0  0  0  0  0  0  0  0
   -5.2149   -1.0947   -1.5593 C   0  0  0  0  0  0  0  0  0  0  0  0
   -4.5231    0.2806   -1.3386 C   0  0  0  0  0  0  0  0  0  0  0  0
   -5.3859    1.1558   -0.5412 N   0  0  0  0  0  0  0  0  0  0  0  0
   -5.0633    1.4477    0.7493 C   0  0  0  0  0  0  0  0  0  0  0  0
   -3.9478    1.2086    1.3489 N   0  0  0  0  0  0  0  0  0  0  0  0
   -2.9444    0.5860    0.5824 C   0  0  0  0  0  0  0  0  0  0  0  0
   -1.6728    0.4270    1.1336 C   0  0  0  0  0  0  0  0  0  0  0  0
   -0.6352   -0.1614    0.3975 C   0  0  0  0  0  0  0  0  0  0  0  0
    0.7097   -0.3423    0.9636 C   0  0  0  0  0  0  0  0  0  0  0  0
    0.8903   -0.9552    2.2135 C   0  0  0  0  0  0  0  0  0  0  0  0
    2.1661   -1.1308    2.7518 C   0  0  0  0  0  0  0  0  0  0  0  0
    3.2870   -0.6936    2.0480 C   0  0  0  0  0  0  0  0  0  0  0  0
    3.1474   -0.0725    0.7998 C   0  0  0  0  0  0  0  0  0  0  0  0
    4.3289    0.3833    0.0535 C   0  0  0  0  0  0  0  0  0  0  0  0
    5.1259   -0.5713   -0.6070 C   0  0  0  0  0  0  0  0  0  0  0  0
    6.2542   -0.1834   -1.3305 C   0  0  0  0  0  0  0  0  0  0  0  0
    7.2073   -1.3723   -2.1286 Cl  0  0  0  0  0  0  0  0  0  0  0  0
    6.6141    1.1584   -1.4119 C   0  0  0  0  0  0  0  0  0  0  0  0
    5.8394    2.1200   -0.7628 C   0  0  0  0  0  0  0  0  0  0  0  0
    4.7059    1.7378   -0.0349 C   0  0  0  0  0  0  0  0  0  0  0  0
    3.8096    2.9897    0.7545 Cl  0  0  0  0  0  0  0  0  0  0  0  0
    1.8546    0.0925    0.2710 C   0  0  0  0  0  0  0  0  0  0  0  0
   -0.9495   -0.5649   -0.9017 C   0  0  0  0  0  0  0  0  0  0  0  0
   -2.1647   -0.4309   -1.4867 N   0  0  0  0  0  0  0  0  0  0  0  0
   -3.1455    0.1295   -0.7251 C   0  0  0  0  0  0  0  0  0  0  0  0
   -6.3297   -2.5140   -0.5716 H   0  0  0  0  0  0  0  0  0  0  0  0
   -6.1181   -1.1243    0.2867 H   0  0  0  0  0  0  0  0  0  0  0  0
   -6.1061   -0.9263   -2.1766 H   0  0  0  0  0  0  0  0  0  0  0  0
   -4.5583   -1.7675   -2.1221 H   0  0  0  0  0  0  0  0  0  0  0  0
   -4.3932    0.7562   -2.3187 H   0  0  0  0  0  0  0  0  0  0  0  0
   -6.3498    1.2341   -0.8371 H   0  0  0  0  0  0  0  0  0  0  0  0
   -5.8818    1.9467    1.2949 H   0  0  0  0  0  0  0  0  0  0  0  0
   -1.4981    0.7850    2.1453 H   0  0  0  0  0  0  0  0  0  0  0  0
    0.0303   -1.3120    2.7782 H   0  0  0  0  0  0  0  0  0  0  0  0
    2.2843   -1.6082    3.7212 H   0  0  0  0  0  0  0  0  0  0  0  0
    4.2740   -0.8333    2.4843 H   0  0  0  0  0  0  0  0  0  0  0  0
    4.8571   -1.6253   -0.5575 H   0  0  0  0  0  0  0  0  0  0  0  0
    7.4929    1.4620   -1.9749 H   0  0  0  0  0  0  0  0  0  0  0  0
    6.1242    3.1678   -0.8248 H   0  0  0  0  0  0  0  0  0  0  0  0
    1.7410    0.5869   -0.6935 H   0  0  0  0  0  0  0  0  0  0  0  0
   -0.2020   -1.0387   -1.5342 H   0  0  0  0  0  0  0  0  0  0  0  0
  1  2  1  0
  2  3  1  0
  3  4  1  0
  4  5  1  0
  5  6  2  0
  6  7  1  0
  7  8  2  0
  8  9  1  0
  9 10  1  0
 10 11  2  0
 11 12  1  0
 12 13  2  0
 13 14  1  0
 14 15  1  0
 15 16  2  0
 16 17  1  0
 17 18  1  0
 17 19  2  0
 19 20  1  0
 20 21  2  0
 21 22  1  0
 14 23  2  0
  9 24  2  0
 24 25  1  0
 25 26  2  0
 26  3  1  0
 26  7  1  0
 23 10  1  0
 21 15  1  0
  1 27  1  0
  1 28  1  0
  2 29  1  0
  2 30  1  0
  3 31  1  0
  4 32  1  0
  5 33  1  0
  8 34  1  0
 11 35  1  0
 12 36  1  0
 13 37  1  0
 16 38  1  0
 19 39  1  0
 20 40  1  0
 23 41  1  0
 24 42  1  0
M  END
$$$$
