
     RDKit          3D

 44 46  0  0  0  0  0  0  0  0999 V2000
    8.8256   -0.8852   -0.4212 C   0  0  0  0  0  0  0  0  0  0  0  0
    7.5413   -0.4428   -1.0948 C   0  0  0  0  0  0  0  0  0  0  0  0
    6.4126   -0.5377   -0.1911 N   0  0  0  0  0  0  0  0  0  0  0  0
    5.1300   -0.4151   -0.6938 C   0  0  0  0  0  0  0  0  0  0  0  0
    4.8948   -0.3087   -1.8900 O   0  0  0  0  0  0  0  0  0  0  0  0
    4.2084   -0.4414    0.3247 N   0  0  0  0  0  0  0  0  0  0  0  0
    2.8122   -0.2844    0.2383 C   0  0  0  0  0  0  0  0  0  0  0  0
    2.1363    0.0877   -0.9234 C   0  0  0  0  0  0  0  0  0  0  0  0
    0.7425    0.2269   -0.9163 C   0  0  0  0  0  0  0  0  0  0  0  0
    0.0141   -0.0142    0.2565 C   0  0  0  0  0  0  0  0  0  0  0  0
   -1.4696    0.1267    0.3137 C   0  0  0  0  0  0  0  0  0  0  0  0
   -1.9805    0.4459    1.3813 O   0  0  0  0  0  0  0  0  0  0  0  0
   -2.1348   -0.1546   -0.8549 N   0  0  0  0  0  0  0  0  0  0  0  0
   -3.5058   -0.0833   -1.1075 C   0  0  0  0  0  0  0  0  0  0  0  0
   -4.4494    0.3646   -0.1943 C   0  0  0  0  0  0  0  0  0  0  0  0
   -5.8008    0.3988   -0.5633 C   0  0  0  0  0  0  0  0  0  0  0  0
   -6.8081    0.8869    0.3862 C   0  0  0  0  0  0  0  0  0  0  0  0
   -6.7226    1.9098    1.3177 C   0  0  0  0  0  0  0  0  0  0  0  0
   -7.8466    2.1304    2.0916 N   0  0  0  0  0  0  0  0  0  0  0  0
   -8.7759    1.2666    1.7526 C   0  0  0  0  0  0  0  0  0  0  0  0
   -8.3678    0.1653    0.5063 S   0  0  0  0  0  0  0  0  0  0  0  0
   -6.1442   -0.0181   -1.8504 C   0  0  0  0  0  0  0  0  0  0  0  0
   -5.1376   -0.4467   -2.6961 C   0  0  0  0  0  0  0  0  0  0  0  0
   -3.8338   -0.4860   -2.3523 N   0  0  0  0  0  0  0  0  0  0  0  0
    0.6892   -0.3664    1.4320 C   0  0  0  0  0  0  0  0  0  0  0  0
    2.0756   -0.4995    1.4127 C   0  0  0  0  0  0  0  0  0  0  0  0
    2.7563   -0.8461    2.5539 O   0  0  0  0  0  0  0  0  0  0  0  0
    9.0424   -0.2657    0.4552 H   0  0  0  0  0  0  0  0  0  0  0  0
    8.7526   -1.9246   -0.0846 H   0  0  0  0  0  0  0  0  0  0  0  0
    9.6685   -0.8061   -1.1145 H   0  0  0  0  0  0  0  0  0  0  0  0
    7.6200    0.5992   -1.4237 H   0  0  0  0  0  0  0  0  0  0  0  0
    7.3454   -1.0609   -1.9783 H   0  0  0  0  0  0  0  0  0  0  0  0
    6.5324   -0.1091    0.7149 H   0  0  0  0  0  0  0  0  0  0  0  0
    4.5336   -0.7489    1.2328 H   0  0  0  0  0  0  0  0  0  0  0  0
    2.6697    0.2894   -1.8478 H   0  0  0  0  0  0  0  0  0  0  0  0
    0.2546    0.5526   -1.8313 H   0  0  0  0  0  0  0  0  0  0  0  0
   -1.6315   -0.5212   -1.6506 H   0  0  0  0  0  0  0  0  0  0  0  0
   -4.1579    0.6789    0.8009 H   0  0  0  0  0  0  0  0  0  0  0  0
   -5.8533    2.5389    1.4731 H   0  0  0  0  0  0  0  0  0  0  0  0
   -9.7465    1.2456    2.2306 H   0  0  0  0  0  0  0  0  0  0  0  0
   -7.1689   -0.0017   -2.2065 H   0  0  0  0  0  0  0  0  0  0  0  0
   -5.3606   -0.7766   -3.7070 H   0  0  0  0  0  0  0  0  0  0  0  0
    0.1239   -0.5333    2.3451 H   0  0  0  0  0  0  0  0  0  0  0  0
    2.1140   -0.9359    3.2794 H   0  0  0  0  0  0  0  0  0  0  0  0
  1  2  1  0
  2  3  1  0
  3  4  1  0
  4  5  2  0
  4  6  1  0
  6  7  1  0
  7  8  2  0
  8  9  1  0
  9 10  2  0
 10 11  1  0
 11 12  2  0
 11 13  1  0
 13 14  1  0
 14 15  2  0
 15 16  1  0
 16 17  1  0
 17 18  2  0
 18 19  1  0
 19 20  2  0
 20 21  1  0
 16 22  2  0
 22 23  1  0
 23 24  2  0
 10 25  1  0
 25 26  2  0
 26 27  1  0
 26  7  1  0
 24 14  1  0
 21 17  1  0
  1 28  1  0
  1 29  1  0
  1 30  1  0
  2 31  1  0
  2 32  1  0
  3 33  1  0
  6 34  1  0
  8 35  1  0
  9 36  1  0
 13 37  1  0
 15 38  1  0
 18 39  1  0
 20 40  1  0
 22 41  1  0
 23 42  1  0
 25 43  1  0
 27 44  1  0
M  END
$$$$
