
     RDKit          3D

 54 57  0  0  0  0  0  0  0  0999 V2000
    6.6029   -1.5192    0.0191 C   0  0  0  0  0  0  0  0  0  0  0  0
    5.8741   -0.2764   -0.2159 N   0  0  0  0  0  0  0  0  0  0  0  0
    5.1881   -0.3135   -1.5294 C   0  0  0  0  0  0  0  0  0  0  0  0
    3.8553    0.4673   -1.5711 C   0  0  0  0  0  0  0  0  0  0  0  0
    2.9109   -0.1246   -0.6074 N   0  0  0  0  0  0  0  0  0  0  0  0
    1.6248    0.4150   -0.6169 C   0  0  0  0  0  0  0  0  0  0  0  0
    0.5996   -0.1749    0.1320 C   0  0  0  0  0  0  0  0  0  0  0  0
   -0.7114    0.3264    0.1141 C   0  0  0  0  0  0  0  0  0  0  0  0
   -1.7392   -0.2062    0.9112 N   0  0  0  0  0  0  0  0  0  0  0  0
   -1.6771   -1.5375    1.5114 C   0  0  0  0  0  0  0  0  0  0  0  0
   -1.8145   -2.6003    0.4689 C   0  0  0  0  0  0  0  0  0  0  0  0
   -2.9204   -2.8468   -0.2475 C   0  0  0  0  0  0  0  0  0  0  0  0
   -4.1836   -2.0562   -0.2281 C   0  0  0  0  0  0  0  0  0  0  0  0
   -4.7616   -1.7429    1.0624 N   0  0  0  0  0  0  0  0  0  0  0  0
   -4.1828   -1.5863    2.1921 C   0  0  0  0  0  0  0  0  0  0  0  0
   -2.7373   -1.6874    2.5900 C   0  0  0  0  0  0  0  0  0  0  0  0
   -0.9440    1.4929   -0.6408 C   0  0  0  0  0  0  0  0  0  0  0  0
   -2.2427    2.1727   -0.6839 C   0  0  0  0  0  0  0  0  0  0  0  0
   -3.2291    1.7999   -1.6061 C   0  0  0  0  0  0  0  0  0  0  0  0
   -2.9907    0.8065   -2.4760 F   0  0  0  0  0  0  0  0  0  0  0  0
   -4.4683    2.4400   -1.6344 C   0  0  0  0  0  0  0  0  0  0  0  0
   -5.3959    2.0628   -2.5242 F   0  0  0  0  0  0  0  0  0  0  0  0
   -4.7580    3.4687   -0.7489 C   0  0  0  0  0  0  0  0  0  0  0  0
   -3.7873    3.8512    0.1668 C   0  0  0  0  0  0  0  0  0  0  0  0
   -4.0541    4.8461    1.0234 F   0  0  0  0  0  0  0  0  0  0  0  0
   -2.5456    3.2157    0.2012 C   0  0  0  0  0  0  0  0  0  0  0  0
   -1.6330    3.6217    1.0973 F   0  0  0  0  0  0  0  0  0  0  0  0
    0.1253    2.0047   -1.3728 C   0  0  0  0  0  0  0  0  0  0  0  0
    1.3731    1.4880   -1.3888 N   0  0  0  0  0  0  0  0  0  0  0  0
    3.4864   -0.5083    0.6950 C   0  0  0  0  0  0  0  0  0  0  0  0
    4.9282    0.0248    0.8774 C   0  0  0  0  0  0  0  0  0  0  0  0
    7.1903   -1.4511    0.9414 H   0  0  0  0  0  0  0  0  0  0  0  0
    7.3150   -1.7066   -0.7923 H   0  0  0  0  0  0  0  0  0  0  0  0
    5.9346   -2.3839    0.1005 H   0  0  0  0  0  0  0  0  0  0  0  0
    4.9684   -1.3510   -1.8176 H   0  0  0  0  0  0  0  0  0  0  0  0
    5.8692    0.0922   -2.2860 H   0  0  0  0  0  0  0  0  0  0  0  0
    4.0372    1.5266   -1.3470 H   0  0  0  0  0  0  0  0  0  0  0  0
    3.4511    0.3969   -2.5888 H   0  0  0  0  0  0  0  0  0  0  0  0
    0.8409   -1.0576    0.7089 H   0  0  0  0  0  0  0  0  0  0  0  0
   -2.6561   -0.0309    0.5092 H   0  0  0  0  0  0  0  0  0  0  0  0
   -0.7169   -1.6688    2.0243 H   0  0  0  0  0  0  0  0  0  0  0  0
   -0.9426   -3.2304    0.3091 H   0  0  0  0  0  0  0  0  0  0  0  0
   -2.8869   -3.6542   -0.9767 H   0  0  0  0  0  0  0  0  0  0  0  0
   -4.0621   -1.1425   -0.8192 H   0  0  0  0  0  0  0  0  0  0  0  0
   -4.9337   -2.6477   -0.7680 H   0  0  0  0  0  0  0  0  0  0  0  0
   -4.8611   -1.3816    3.0408 H   0  0  0  0  0  0  0  0  0  0  0  0
   -2.6234   -2.6486    3.1078 H   0  0  0  0  0  0  0  0  0  0  0  0
   -2.5805   -0.9124    3.3524 H   0  0  0  0  0  0  0  0  0  0  0  0
   -5.7220    3.9639   -0.7726 H   0  0  0  0  0  0  0  0  0  0  0  0
    0.0076    2.8905   -1.9924 H   0  0  0  0  0  0  0  0  0  0  0  0
    2.8902   -0.1303    1.5349 H   0  0  0  0  0  0  0  0  0  0  0  0
    3.4902   -1.6027    0.7604 H   0  0  0  0  0  0  0  0  0  0  0  0
    4.8732    1.1189    0.9579 H   0  0  0  0  0  0  0  0  0  0  0  0
    5.3252   -0.3127    1.8431 H   0  0  0  0  0  0  0  0  0  0  0  0
  1  2  1  0
  2  3  1  0
  3  4  1  0
  4  5  1  0
  5  6  1  0
  6  7  2  0
  7  8  1  0
  8  9  1  0
  9 10  1  0
 10 11  1  0
 11 12  2  0
 12 13  1  0
 13 14  1  0
 14 15  2  0
 15 16  1  0
  8 17  2  0
 17 18  1  0
 18 19  2  0
 19 20  1  0
 19 21  1  0
 21 22  1  0
 21 23  2  0
 23 24  1  0
 24 25  1  0
 24 26  2  0
 26 27  1  0
 17 28  1  0
 28 29  2  0
  5 30  1  0
 30 31  1  0
 31  2  1  0
 29  6  1  0
 16 10  1  0
 26 18  1  0
  1 32  1  0
  1 33  1  0
  1 34  1  0
  3 35  1  0
  3 36  1  0
  4 37  1  0
  4 38  1  0
  7 39  1  0
  9 40  1  0
 10 41  1  0
 11 42  1  0
 12 43  1  0
 13 44  1  0
 13 45  1  0
 15 46  1  0
 16 47  1  0
 16 48  1  0
 23 49  1  0
 28 50  1  0
 30 51  1  0
 30 52  1  0
 31 53  1  0
 31 54  1  0
M  END
$$$$
