
     RDKit          3D

 39 42  0  0  0  0  0  0  0  0999 V2000
   -4.6136   -1.1230   -2.1738 C   0  0  0  0  0  0  0  0  0  0  0  0
   -3.8836   -0.0046   -1.4767 C   0  0  0  0  0  0  0  0  0  0  0  0
   -4.3846    1.3050   -1.6060 C   0  0  0  0  0  0  0  0  0  0  0  0
   -3.7399    2.3802   -0.9989 C   0  0  0  0  0  0  0  0  0  0  0  0
   -2.5919    2.1448   -0.2589 C   0  0  0  0  0  0  0  0  0  0  0  0
   -1.9194    3.1637    0.3517 O   0  0  0  0  0  0  0  0  0  0  0  0
   -2.0862    0.8554   -0.1148 C   0  0  0  0  0  0  0  0  0  0  0  0
   -2.7205   -0.2469   -0.7061 C   0  0  0  0  0  0  0  0  0  0  0  0
   -2.2006   -1.5472   -0.6171 N   0  0  0  0  0  0  0  0  0  0  0  0
   -0.9935   -2.0714   -0.1634 C   0  0  0  0  0  0  0  0  0  0  0  0
   -0.9557   -3.4110   -0.0696 N   0  0  0  0  0  0  0  0  0  0  0  0
    0.1970   -3.9684    0.3455 C   0  0  0  0  0  0  0  0  0  0  0  0
    1.3176   -3.2461    0.6632 C   0  0  0  0  0  0  0  0  0  0  0  0
    1.1909   -1.8856    0.5277 C   0  0  0  0  0  0  0  0  0  0  0  0
    2.2783   -0.9554    0.8102 C   0  0  0  0  0  0  0  0  0  0  0  0
    3.5729   -1.1396    1.2691 C   0  0  0  0  0  0  0  0  0  0  0  0
    4.1924    0.1292    1.3600 C   0  0  0  0  0  0  0  0  0  0  0  0
    5.4496    0.4373    1.7603 N   0  0  0  0  0  0  0  0  0  0  0  0
    5.7375    1.7569    1.7345 C   0  0  0  0  0  0  0  0  0  0  0  0
    4.8697    2.7686    1.3428 C   0  0  0  0  0  0  0  0  0  0  0  0
    3.5800    2.4410    0.9326 C   0  0  0  0  0  0  0  0  0  0  0  0
    3.2667    1.0829    0.9532 C   0  0  0  0  0  0  0  0  0  0  0  0
    2.1207    0.4052    0.6246 N   0  0  0  0  0  0  0  0  0  0  0  0
    0.0545   -1.2869    0.1187 N   0  0  0  0  0  0  0  0  0  0  0  0
   -5.4469   -0.7472   -2.7771 H   0  0  0  0  0  0  0  0  0  0  0  0
   -3.9377   -1.6571   -2.8495 H   0  0  0  0  0  0  0  0  0  0  0  0
   -5.0256   -1.8212   -1.4383 H   0  0  0  0  0  0  0  0  0  0  0  0
   -5.2820    1.4931   -2.1917 H   0  0  0  0  0  0  0  0  0  0  0  0
   -4.1430    3.3804   -1.1177 H   0  0  0  0  0  0  0  0  0  0  0  0
   -2.4021    3.9908    0.1908 H   0  0  0  0  0  0  0  0  0  0  0  0
   -1.1985    0.7255    0.4935 H   0  0  0  0  0  0  0  0  0  0  0  0
   -2.8337   -2.3104   -0.8006 H   0  0  0  0  0  0  0  0  0  0  0  0
    0.1898   -5.0523    0.4145 H   0  0  0  0  0  0  0  0  0  0  0  0
    2.2280   -3.7258    0.9909 H   0  0  0  0  0  0  0  0  0  0  0  0
    4.0417   -2.0803    1.5196 H   0  0  0  0  0  0  0  0  0  0  0  0
    6.7469    2.0016    2.0566 H   0  0  0  0  0  0  0  0  0  0  0  0
    5.1963    3.8031    1.3575 H   0  0  0  0  0  0  0  0  0  0  0  0
    2.8671    3.1947    0.6192 H   0  0  0  0  0  0  0  0  0  0  0  0
    1.2613    0.8207    0.2880 H   0  0  0  0  0  0  0  0  0  0  0  0
  1  2  1  0
  2  3  2  0
  3  4  1  0
  4  5  2  0
  5  6  1  0
  5  7  1  0
  7  8  2  0
  8  9  1  0
  9 10  1  0
 10 11  2  0
 11 12  1  0
 12 13  2  0
 13 14  1  0
 14 15  1  0
 15 16  2  0
 16 17  1  0
 17 18  2  0
 18 19  1  0
 19 20  2  0
 20 21  1  0
 21 22  2  0
 22 23  1  0
 14 24  2  0
  8  2  1  0
 24 10  1  0
 23 15  1  0
 22 17  1  0
  1 25  1  0
  1 26  1  0
  1 27  1  0
  3 28  1  0
  4 29  1  0
  6 30  1  0
  7 31  1  0
  9 32  1  0
 12 33  1  0
 13 34  1  0
 16 35  1  0
 19 36  1  0
 20 37  1  0
 21 38  1  0
 23 39  1  0
M  END
$$$$
