
     RDKit          3D

 77 80  0  0  0  0  0  0  0  0999 V2000
    6.2109   -1.6361   -0.4451 C   0  0  0  0  0  0  0  0  0  0  0  0
    6.0584   -0.1508   -0.6843 C   0  0  0  0  0  0  0  0  0  0  0  0
    5.1522    0.3353   -1.6629 C   0  0  0  0  0  0  0  0  0  0  0  0
    4.2245   -0.5601   -2.4746 C   0  0  0  0  0  0  0  0  0  0  0  0
    3.2182   -1.2941   -1.6356 C   0  0  0  0  0  3  0  0  0  0  0  0
    2.2176   -0.6791   -0.9232 N   0  0  0  0  0  0  0  0  0  0  0  0
    1.7289    0.6078   -1.0928 C   0  0  0  0  0  0  0  0  0  0  0  0
    1.9534    1.3321   -2.0607 O   0  0  0  0  0  0  0  0  0  0  0  0
    0.9069    1.1280    0.1124 C   0  0  2  0  0  0  0  0  0  0  0  0
    1.7926    2.0697    0.9343 C   0  0  0  0  0  0  0  0  0  0  0  0
    2.5101    1.1261    1.8895 C   0  0  0  0  0  0  0  0  0  0  0  0
    1.4395    0.1013    2.2239 C   0  0  0  0  0  0  0  0  0  0  0  0
    0.5334    0.0781    1.0746 N   0  0  0  0  0  0  0  0  0  0  0  0
   -0.5633   -0.7671    1.1191 C   0  0  0  0  0  0  0  0  0  0  0  0
   -0.5998   -1.5967    2.0407 O   0  0  0  0  0  0  0  0  0  0  0  0
   -1.7597   -0.6643    0.1054 C   0  0  0  0  0  0  0  0  0  0  0  0
   -1.3055   -0.6665   -1.3554 C   0  0  0  0  0  0  0  0  0  0  0  0
   -2.5679    0.5914    0.4556 C   0  0  0  0  0  0  0  0  0  0  0  0
   -2.5259   -1.8701    0.4075 O   0  0  0  0  0  0  0  0  0  0  0  0
   -3.6679   -2.1197   -0.2991 C   0  0  0  0  0  0  0  0  0  0  0  0
   -4.8844   -1.6316    0.1817 C   0  0  0  0  0  0  0  0  0  0  0  0
   -6.0750   -1.9465   -0.4845 C   0  0  0  0  0  0  0  0  0  0  0  0
   -7.3972   -1.4375   -0.0295 C   0  0  0  0  0  0  0  0  0  0  0  0
   -8.4245   -2.0532   -0.2932 O   0  0  0  0  0  0  0  0  0  0  0  0
   -7.3965   -0.2475    0.6572 N   0  0  0  0  0  0  0  0  0  0  0  0
   -8.6218    0.3571    1.1561 C   0  0  2  0  0  0  0  0  0  0  0  0
   -9.4067    1.0552    0.0546 C   0  0  0  0  0  0  0  0  0  0  0  0
   -8.2462    1.3714    2.2271 C   0  0  0  0  0  0  0  0  0  0  0  0
   -7.0978    1.7730    2.4165 O   0  0  0  0  0  0  0  0  0  0  0  0
   -6.0428   -2.7981   -1.5980 C   0  0  0  0  0  0  0  0  0  0  0  0
   -4.8315   -3.3266   -2.0485 C   0  0  0  0  0  0  0  0  0  0  0  0
   -3.6504   -2.9953   -1.3899 C   0  0  0  0  0  0  0  0  0  0  0  0
   -2.4631   -3.5298   -1.8037 O   0  0  0  0  0  0  0  0  0  0  0  0
    5.0814    1.7182   -1.8899 C   0  0  0  0  0  0  0  0  0  0  0  0
    5.8485    2.6128   -1.1487 C   0  0  0  0  0  0  0  0  0  0  0  0
    6.7018    2.1591   -0.1401 C   0  0  0  0  0  0  0  0  0  0  0  0
    7.4408    3.0836    0.6170 C   0  0  0  0  0  0  0  0  0  0  0  0
    8.2842    2.6604    1.6418 C   0  0  0  0  0  0  0  0  0  0  0  0
    8.3940    1.3077    1.9224 C   0  0  0  0  0  0  0  0  0  0  0  0
    7.6703    0.3783    1.1706 C   0  0  0  0  0  0  0  0  0  0  0  0
    6.8116    0.7701    0.1153 C   0  0  0  0  0  0  0  0  0  0  0  0
    5.8628   -2.2387   -1.2872 H   0  0  0  0  0  0  0  0  0  0  0  0
    7.2651   -1.9070   -0.3226 H   0  0  0  0  0  0  0  0  0  0  0  0
    5.6503   -1.9281    0.4477 H   0  0  0  0  0  0  0  0  0  0  0  0
    4.8409   -1.2850   -3.0229 H   0  0  0  0  0  0  0  0  0  0  0  0
    3.7090    0.0086   -3.2578 H   0  0  0  0  0  0  0  0  0  0  0  0
    3.3700   -2.3460   -1.4203 H   0  0  0  0  0  0  0  0  0  0  0  0
    1.7529   -1.2302   -0.2055 H   0  0  0  0  0  0  0  0  0  0  0  0
    0.0286    1.6479   -0.2690 H   0  0  0  0  0  0  0  0  0  0  0  0
    2.4942    2.6567    0.3334 H   0  0  0  0  0  0  0  0  0  0  0  0
    1.1660    2.7637    1.5079 H   0  0  0  0  0  0  0  0  0  0  0  0
    2.8970    1.6337    2.7773 H   0  0  0  0  0  0  0  0  0  0  0  0
    3.3540    0.6439    1.3817 H   0  0  0  0  0  0  0  0  0  0  0  0
    0.8636    0.4081    3.1042 H   0  0  0  0  0  0  0  0  0  0  0  0
    1.8579   -0.8940    2.4054 H   0  0  0  0  0  0  0  0  0  0  0  0
   -0.6138   -1.4943   -1.5476 H   0  0  0  0  0  0  0  0  0  0  0  0
   -2.1479   -0.7816   -2.0447 H   0  0  0  0  0  0  0  0  0  0  0  0
   -0.8230    0.2637   -1.6537 H   0  0  0  0  0  0  0  0  0  0  0  0
   -1.9618    1.5010    0.4449 H   0  0  0  0  0  0  0  0  0  0  0  0
   -3.3958    0.7437   -0.2461 H   0  0  0  0  0  0  0  0  0  0  0  0
   -3.0016    0.5059    1.4584 H   0  0  0  0  0  0  0  0  0  0  0  0
   -4.8915   -1.0483    1.0963 H   0  0  0  0  0  0  0  0  0  0  0  0
   -6.5436    0.2859    0.7913 H   0  0  0  0  0  0  0  0  0  0  0  0
   -9.2308   -0.4244    1.6248 H   0  0  0  0  0  0  0  0  0  0  0  0
   -8.8109    1.8479   -0.4125 H   0  0  0  0  0  0  0  0  0  0  0  0
   -9.7005    0.3537   -0.7328 H   0  0  0  0  0  0  0  0  0  0  0  0
  -10.3156    1.5160    0.4560 H   0  0  0  0  0  0  0  0  0  0  0  0
   -9.0881    1.7546    2.8313 H   0  0  0  0  0  0  0  0  0  0  0  0
   -6.9675   -3.0644   -2.1080 H   0  0  0  0  0  0  0  0  0  0  0  0
   -4.8345   -3.9977   -2.9023 H   0  0  0  0  0  0  0  0  0  0  0  0
   -2.6334   -4.1654   -2.5184 H   0  0  0  0  0  0  0  0  0  0  0  0
    4.4003    2.1145   -2.6434 H   0  0  0  0  0  0  0  0  0  0  0  0
    5.7548    3.6748   -1.3582 H   0  0  0  0  0  0  0  0  0  0  0  0
    7.3650    4.1483    0.4113 H   0  0  0  0  0  0  0  0  0  0  0  0
    8.8487    3.3877    2.2187 H   0  0  0  0  0  0  0  0  0  0  0  0
    9.0441    0.9687    2.7246 H   0  0  0  0  0  0  0  0  0  0  0  0
    7.7835   -0.6697    1.4344 H   0  0  0  0  0  0  0  0  0  0  0  0
  1  2  1  0
  2  3  2  0
  3  4  1  0
  4  5  1  0
  5  6  1  0
  6  7  1  0
  7  8  2  0
  7  9  1  0
  9 10  1  0
 10 11  1  0
 11 12  1  0
 12 13  1  0
 13 14  1  0
 14 15  2  0
 14 16  1  0
 16 17  1  0
 16 18  1  0
 16 19  1  0
 19 20  1  0
 20 21  2  0
 21 22  1  0
 22 23  1  0
 23 24  2  0
 23 25  1  0
 25 26  1  0
 26 27  1  0
 26 28  1  0
 28 29  2  0
 22 30  2  0
 30 31  1  0
 31 32  2  0
 32 33  1  0
  3 34  1  0
 34 35  2  0
 35 36  1  0
 36 37  2  0
 37 38  1  0
 38 39  2  0
 39 40  1  0
 40 41  2  0
 41  2  1  0
 13  9  1  0
 32 20  1  0
 41 36  1  0
  1 42  1  0
  1 43  1  0
  1 44  1  0
  4 45  1  0
  4 46  1  0
  5 47  1  0
  6 48  1  0
  9 49  1  6
 10 50  1  0
 10 51  1  0
 11 52  1  0
 11 53  1  0
 12 54  1  0
 12 55  1  0
 17 56  1  0
 17 57  1  0
 17 58  1  0
 18 59  1  0
 18 60  1  0
 18 61  1  0
 21 62  1  0
 25 63  1  0
 26 64  1  1
 27 65  1  0
 27 66  1  0
 27 67  1  0
 28 68  1  0
 30 69  1  0
 31 70  1  0
 33 71  1  0
 34 72  1  0
 35 73  1  0
 37 74  1  0
 38 75  1  0
 39 76  1  0
 40 77  1  0
M  RAD  1   5   2
M  END
$$$$
