
     RDKit          3D

 36 38  0  0  0  0  0  0  0  0999 V2000
   -5.3291    0.3876    1.0388 C   0  0  0  0  0  0  0  0  0  0  0  0
   -4.1518   -0.2018    0.3424 C   0  0  0  0  0  0  0  0  0  0  0  0
   -2.9881   -0.5687    0.9016 C   0  0  0  0  0  0  0  0  0  0  0  0
   -2.0125   -1.0554   -0.1377 C   0  0  0  0  0  0  0  0  0  0  0  0
   -2.8118   -0.8064   -1.4821 C   0  0  0  0  0  0  0  0  0  0  0  0
   -4.1526   -0.3949   -1.0334 N   0  0  0  0  0  0  0  0  0  0  0  0
   -2.0490    0.3363   -2.0904 C   0  0  0  0  0  0  0  0  0  0  0  0
   -2.4124    0.9880   -3.2078 F   0  0  0  0  0  0  0  0  0  0  0  0
   -0.9726    0.6478   -1.3619 C   0  0  0  0  0  0  0  0  0  0  0  0
   -0.8403   -0.1702   -0.2542 N   0  0  0  0  0  0  0  0  0  0  0  0
    0.0254    0.0669    0.8944 C   0  0  0  0  0  0  0  0  0  0  0  0
    1.4979    0.0096    0.5390 C   0  0  0  0  0  0  0  0  0  0  0  0
    1.9813   -0.9184   -0.3995 C   0  0  0  0  0  0  0  0  0  0  0  0
    3.3438   -0.9937   -0.6996 C   0  0  0  0  0  0  0  0  0  0  0  0
    4.2516   -0.1508   -0.0514 C   0  0  0  0  0  0  0  0  0  0  0  0
    5.6879   -0.2651   -0.3996 C   0  0  0  0  0  0  0  0  0  0  0  0
    6.1688   -1.0395   -1.2056 O   0  0  0  0  0  0  0  0  0  0  0  0
    6.4602    0.6004    0.2817 O   0  0  0  0  0  0  0  0  0  0  0  0
    3.7910    0.7617    0.9041 C   0  0  0  0  0  0  0  0  0  0  0  0
    2.4270    0.8277    1.1957 C   0  0  0  0  0  0  0  0  0  0  0  0
    1.9809    1.7000    2.1499 O   0  0  0  0  0  0  0  0  0  0  0  0
   -5.1507    0.4895    2.1142 H   0  0  0  0  0  0  0  0  0  0  0  0
   -5.5525    1.3815    0.6382 H   0  0  0  0  0  0  0  0  0  0  0  0
   -6.2101   -0.2474    0.9015 H   0  0  0  0  0  0  0  0  0  0  0  0
   -2.7613   -0.5057    1.9543 H   0  0  0  0  0  0  0  0  0  0  0  0
   -1.7342   -2.1053   -0.0028 H   0  0  0  0  0  0  0  0  0  0  0  0
   -2.8425   -1.6886   -2.1279 H   0  0  0  0  0  0  0  0  0  0  0  0
   -4.5648    0.3758   -1.5552 H   0  0  0  0  0  0  0  0  0  0  0  0
   -0.2622    1.4418   -1.5486 H   0  0  0  0  0  0  0  0  0  0  0  0
   -0.1501   -0.6907    1.6683 H   0  0  0  0  0  0  0  0  0  0  0  0
   -0.2381    1.0400    1.3244 H   0  0  0  0  0  0  0  0  0  0  0  0
    1.2899   -1.5851   -0.9115 H   0  0  0  0  0  0  0  0  0  0  0  0
    3.6905   -1.7126   -1.4396 H   0  0  0  0  0  0  0  0  0  0  0  0
    7.3640    0.4132   -0.0499 H   0  0  0  0  0  0  0  0  0  0  0  0
    4.4955    1.4083    1.4184 H   0  0  0  0  0  0  0  0  0  0  0  0
    2.7308    2.2241    2.4788 H   0  0  0  0  0  0  0  0  0  0  0  0
  1  2  1  0
  2  3  2  0
  3  4  1  0
  4  5  1  0
  5  6  1  0
  5  7  1  0
  7  8  1  0
  7  9  2  0
  9 10  1  0
 10 11  1  0
 11 12  1  0
 12 13  2  0
 13 14  1  0
 14 15  2  0
 15 16  1  0
 16 17  2  0
 16 18  1  0
 15 19  1  0
 19 20  2  0
 20 21  1  0
  6  2  1  0
 20 12  1  0
 10  4  1  0
  1 22  1  0
  1 23  1  0
  1 24  1  0
  3 25  1  0
  4 26  1  0
  5 27  1  0
  6 28  1  0
  9 29  1  0
 11 30  1  0
 11 31  1  0
 13 32  1  0
 14 33  1  0
 18 34  1  0
 19 35  1  0
 21 36  1  0
M  END
$$$$
