
     RDKit          3D

 41 44  0  0  0  0  0  0  0  0999 V2000
   -3.6594    1.7047   -0.3694 N   0  0  0  0  0  0  0  0  0  0  0  0
   -2.7779    2.7168    0.0577 C   0  0  0  0  0  0  0  0  0  0  0  0
   -3.3153    3.9510    0.0922 N   0  0  0  0  0  0  0  0  0  0  0  0
   -2.5017    4.9620    0.4162 C   0  0  0  0  0  0  0  0  0  0  0  0
   -1.1992    4.8570    0.6928 N   0  0  0  0  0  0  0  0  0  0  0  0
   -0.6992    3.6041    0.6341 C   0  0  0  0  0  0  0  0  0  0  0  0
   -1.4294    2.4651    0.3202 C   0  0  0  0  0  0  0  0  0  0  0  0
   -0.7976    1.1413    0.3021 C   0  0  0  0  0  0  0  0  0  0  0  0
    0.5508    1.1136    0.1919 N   0  0  0  0  0  0  0  0  0  0  0  0
    1.2176   -0.0846    0.1808 C   0  0  0  0  0  0  0  0  0  0  0  0
    2.6853   -0.0473    0.0538 C   0  0  0  0  0  0  0  0  0  0  0  0
    3.3288    1.1081   -0.4396 C   0  0  0  0  0  0  0  0  0  0  0  0
    4.7209    1.1837   -0.5679 C   0  0  0  0  0  0  0  0  0  0  0  0
    5.4980    0.0957   -0.1986 C   0  0  0  0  0  0  0  0  0  0  0  0
    6.8561    0.1205   -0.3039 O   0  0  0  0  0  0  0  0  0  0  0  0
    4.9051   -1.0566    0.2940 C   0  0  0  0  0  0  0  0  0  0  0  0
    3.5124   -1.1252    0.4197 C   0  0  0  0  0  0  0  0  0  0  0  0
    0.4571   -1.2589    0.2834 C   0  0  0  0  0  0  0  0  0  0  0  0
    0.7680   -2.6050    0.2935 N   0  0  0  0  0  0  0  0  0  0  0  0
   -0.3836   -3.2316    0.4032 C   0  0  0  0  0  0  0  0  0  0  0  0
   -1.4275   -2.3543    0.4852 N   0  0  0  0  0  0  0  0  0  0  0  0
   -2.8236   -2.7004    0.6630 C   0  0  0  0  0  0  0  0  0  0  0  0
   -3.5530   -2.8514   -0.6660 C   0  0  0  0  0  0  0  0  0  0  0  0
   -3.1866   -4.0732   -1.3011 O   0  0  0  0  0  0  0  0  0  0  0  0
   -0.9156   -1.0890    0.3952 C   0  0  0  0  0  0  0  0  0  0  0  0
   -1.6043    0.0630    0.4117 N   0  0  0  0  0  0  0  0  0  0  0  0
   -3.3908    1.4204   -1.3078 H   0  0  0  0  0  0  0  0  0  0  0  0
   -3.5125    0.8895    0.2267 H   0  0  0  0  0  0  0  0  0  0  0  0
   -2.9390    5.9533    0.4528 H   0  0  0  0  0  0  0  0  0  0  0  0
    0.3626    3.5437    0.8671 H   0  0  0  0  0  0  0  0  0  0  0  0
    2.7377    1.9730   -0.7378 H   0  0  0  0  0  0  0  0  0  0  0  0
    5.1686    2.0935   -0.9545 H   0  0  0  0  0  0  0  0  0  0  0  0
    7.1226    0.9815   -0.6653 H   0  0  0  0  0  0  0  0  0  0  0  0
    5.5195   -1.9047    0.5829 H   0  0  0  0  0  0  0  0  0  0  0  0
    3.0888   -2.0445    0.8189 H   0  0  0  0  0  0  0  0  0  0  0  0
   -0.5165   -4.3063    0.4260 H   0  0  0  0  0  0  0  0  0  0  0  0
   -3.2829   -1.9082    1.2641 H   0  0  0  0  0  0  0  0  0  0  0  0
   -2.8574   -3.6317    1.2397 H   0  0  0  0  0  0  0  0  0  0  0  0
   -4.6366   -2.8630   -0.5089 H   0  0  0  0  0  0  0  0  0  0  0  0
   -3.3185   -2.0296   -1.3503 H   0  0  0  0  0  0  0  0  0  0  0  0
   -3.7718   -4.7760   -0.9674 H   0  0  0  0  0  0  0  0  0  0  0  0
  1  2  1  0
  2  3  2  0
  3  4  1  0
  4  5  2  0
  5  6  1  0
  6  7  2  0
  7  8  1  0
  8  9  2  0
  9 10  1  0
 10 11  1  0
 11 12  2  0
 12 13  1  0
 13 14  2  0
 14 15  1  0
 14 16  1  0
 16 17  2  0
 10 18  2  0
 18 19  1  0
 19 20  2  0
 20 21  1  0
 21 22  1  0
 22 23  1  0
 23 24  1  0
 21 25  1  0
 25 26  2  0
  7  2  1  0
 26  8  1  0
 17 11  1  0
 25 18  1  0
  1 27  1  0
  1 28  1  0
  4 29  1  0
  6 30  1  0
 12 31  1  0
 13 32  1  0
 15 33  1  0
 16 34  1  0
 17 35  1  0
 20 36  1  0
 22 37  1  0
 22 38  1  0
 23 39  1  0
 23 40  1  0
 24 41  1  0
M  END
$$$$
