
     RDKit          3D

 42 45  0  0  0  0  0  0  0  0999 V2000
    0.4277   -0.9776    1.7020 C   0  0  0  0  0  0  0  0  0  0  0  0
    0.4727   -0.1362    0.4201 C   0  0  0  0  0  0  0  0  0  0  0  0
    1.9184    0.0106   -0.0631 C   0  0  0  0  0  0  0  0  0  0  0  0
    2.5579   -1.0080   -0.6697 C   0  0  0  0  0  0  0  0  0  0  0  0
    3.8955   -0.9702   -1.1225 C   0  0  0  0  0  0  0  0  0  0  0  0
    5.1160   -0.7382   -0.5189 C   0  0  0  0  0  0  0  0  0  0  0  0
    6.1190   -0.8680   -1.5100 C   0  0  0  0  0  0  0  0  0  0  0  0
    5.4881   -1.1886   -2.6900 C   0  0  0  0  0  0  0  0  0  0  0  0
    4.1410   -1.2610   -2.4437 N   0  0  0  0  0  0  0  0  0  0  0  0
    2.5516    1.3671    0.1308 C   0  0  0  0  0  0  0  0  0  0  0  0
    1.9629    2.4709    0.4900 N   0  0  0  0  0  0  0  0  0  0  0  0
    0.6338    2.3408    0.6766 C   0  0  0  0  0  0  0  0  0  0  0  0
   -0.1753    3.4090    0.9322 N   0  0  0  0  0  0  0  0  0  0  0  0
   -1.4740    2.9804    1.0503 C   0  0  0  0  0  0  0  0  0  0  0  0
   -1.4951    1.6087    0.8677 C   0  0  0  0  0  0  0  0  0  0  0  0
   -2.7151    0.8245    0.9173 C   0  0  0  0  0  0  0  0  0  0  0  0
   -3.5649    0.9051    2.0281 C   0  0  0  0  0  0  0  0  0  0  0  0
   -4.7335    0.1434    2.0818 C   0  0  0  0  0  0  0  0  0  0  0  0
   -5.0602   -0.7047    1.0237 C   0  0  0  0  0  0  0  0  0  0  0  0
   -4.2187   -0.7924   -0.0922 C   0  0  0  0  0  0  0  0  0  0  0  0
   -4.6077   -1.7053   -1.1932 C   0  0  0  0  0  0  0  0  0  0  0  0
   -5.6250   -2.3717   -1.2416 O   0  0  0  0  0  0  0  0  0  0  0  0
   -3.6990   -1.7502   -2.1838 O   0  0  0  0  0  0  0  0  0  0  0  0
   -3.0477   -0.0253   -0.1443 C   0  0  0  0  0  0  0  0  0  0  0  0
   -0.1469    1.2067    0.6420 C   0  0  0  0  0  0  0  0  0  0  0  0
    0.8561   -1.9730    1.5410 H   0  0  0  0  0  0  0  0  0  0  0  0
   -0.6025   -1.1179    2.0473 H   0  0  0  0  0  0  0  0  0  0  0  0
    0.9847   -0.4993    2.5166 H   0  0  0  0  0  0  0  0  0  0  0  0
   -0.0991   -0.6541   -0.3606 H   0  0  0  0  0  0  0  0  0  0  0  0
    2.0174   -1.9402   -0.8280 H   0  0  0  0  0  0  0  0  0  0  0  0
    5.2720   -0.5042    0.5268 H   0  0  0  0  0  0  0  0  0  0  0  0
    7.1859   -0.7448   -1.3748 H   0  0  0  0  0  0  0  0  0  0  0  0
    5.8798   -1.3739   -3.6813 H   0  0  0  0  0  0  0  0  0  0  0  0
    3.4362   -1.4728   -3.1379 H   0  0  0  0  0  0  0  0  0  0  0  0
    3.6294    1.4388   -0.0769 H   0  0  0  0  0  0  0  0  0  0  0  0
    0.1537    4.3608    1.0066 H   0  0  0  0  0  0  0  0  0  0  0  0
   -2.2669    3.6908    1.2426 H   0  0  0  0  0  0  0  0  0  0  0  0
   -3.3154    1.5561    2.8635 H   0  0  0  0  0  0  0  0  0  0  0  0
   -5.3867    0.2102    2.9483 H   0  0  0  0  0  0  0  0  0  0  0  0
   -5.9729   -1.2959    1.0713 H   0  0  0  0  0  0  0  0  0  0  0  0
   -4.0916   -2.3749   -2.8292 H   0  0  0  0  0  0  0  0  0  0  0  0
   -2.4017   -0.0752   -1.0172 H   0  0  0  0  0  0  0  0  0  0  0  0
  1  2  1  0
  2  3  1  0
  3  4  2  3
  4  5  1  0
  5  6  2  0
  6  7  1  0
  7  8  2  0
  8  9  1  0
  3 10  1  0
 10 11  2  0
 11 12  1  0
 12 13  1  0
 13 14  1  0
 14 15  2  0
 15 16  1  0
 16 17  2  0
 17 18  1  0
 18 19  2  0
 19 20  1  0
 20 21  1  0
 21 22  2  0
 21 23  1  0
 20 24  2  0
 15 25  1  0
 25  2  1  0
  9  5  1  0
 25 12  2  0
 24 16  1  0
  1 26  1  0
  1 27  1  0
  1 28  1  0
  2 29  1  0
  4 30  1  0
  6 31  1  0
  7 32  1  0
  8 33  1  0
  9 34  1  0
 10 35  1  0
 13 36  1  0
 14 37  1  0
 17 38  1  0
 18 39  1  0
 19 40  1  0
 23 41  1  0
 24 42  1  0
M  END
$$$$
