
     RDKit          3D

 39 42  0  0  0  0  0  0  0  0999 V2000
   -4.1174    0.8437   -3.2130 O   0  0  0  0  0  0  0  0  0  0  0  0
   -3.5335    1.1265   -1.9185 S   0  0  0  0  0  0  0  0  0  0  0  0
   -4.3165    1.7041   -0.8457 O   0  0  0  0  0  0  0  0  0  0  0  0
   -2.1761    2.1026   -2.2207 N   0  0  0  0  0  0  0  0  0  0  0  0
   -1.3229    2.4133   -1.1239 C   0  0  0  0  0  0  0  0  0  0  0  0
   -1.6508    3.4673   -0.2739 C   0  0  0  0  0  0  0  0  0  0  0  0
   -0.8851    3.7039    0.8680 C   0  0  0  0  0  0  0  0  0  0  0  0
    0.1708    2.8491    1.1880 C   0  0  0  0  0  0  0  0  0  0  0  0
    0.4688    1.7595    0.3629 C   0  0  0  0  0  0  0  0  0  0  0  0
    1.4664    0.7814    0.7671 C   0  0  0  0  0  0  0  0  0  0  0  0
    2.7269    1.0132    1.0691 N   0  0  0  0  0  0  0  0  0  0  0  0
    3.2755   -0.2211    1.3347 C   0  0  0  0  0  0  0  0  0  0  0  0
    4.5938   -0.5622    1.6651 C   0  0  0  0  0  0  0  0  0  0  0  0
    4.9078   -1.9135    1.8767 C   0  0  0  0  0  0  0  0  0  0  0  0
    3.9259   -2.9063    1.7688 C   0  0  0  0  0  0  0  0  0  0  0  0
    2.6018   -2.5841    1.4492 C   0  0  0  0  0  0  0  0  0  0  0  0
    2.3209   -1.2284    1.2358 C   0  0  0  0  0  0  0  0  0  0  0  0
    1.1694   -0.5580    0.9143 N   0  0  0  0  0  0  0  0  0  0  0  0
   -0.2484    1.5766   -0.8241 C   0  0  0  0  0  0  0  0  0  0  0  0
   -2.8385   -0.3861   -1.3225 C   0  0  0  0  0  0  0  0  0  0  0  0
   -2.5809   -1.4597   -2.1786 C   0  0  0  0  0  0  0  0  0  0  0  0
   -2.0155   -2.6241   -1.6573 C   0  0  0  0  0  0  0  0  0  0  0  0
   -1.7101   -2.6567   -0.3074 C   0  0  0  0  0  0  0  0  0  0  0  0
   -1.9306   -1.6175    0.5360 N   0  0  0  0  0  0  0  0  0  0  0  0
   -2.5476   -0.5178    0.0208 C   0  0  0  0  0  0  0  0  0  0  0  0
   -1.7362    1.8952   -3.1180 H   0  0  0  0  0  0  0  0  0  0  0  0
   -2.5041    4.1048   -0.4940 H   0  0  0  0  0  0  0  0  0  0  0  0
   -1.1293    4.5364    1.5244 H   0  0  0  0  0  0  0  0  0  0  0  0
    0.7426    3.0137    2.0997 H   0  0  0  0  0  0  0  0  0  0  0  0
    5.3484    0.2143    1.7465 H   0  0  0  0  0  0  0  0  0  0  0  0
    5.9286   -2.1901    2.1281 H   0  0  0  0  0  0  0  0  0  0  0  0
    4.1956   -3.9497    1.9402 H   0  0  0  0  0  0  0  0  0  0  0  0
    1.8369   -3.3557    1.3735 H   0  0  0  0  0  0  0  0  0  0  0  0
    0.2511   -0.9635    0.8127 H   0  0  0  0  0  0  0  0  0  0  0  0
    0.0023    0.7467   -1.4796 H   0  0  0  0  0  0  0  0  0  0  0  0
   -2.8286   -1.4040   -3.2364 H   0  0  0  0  0  0  0  0  0  0  0  0
   -1.8192   -3.4881   -2.2889 H   0  0  0  0  0  0  0  0  0  0  0  0
   -1.2809   -3.5437    0.1486 H   0  0  0  0  0  0  0  0  0  0  0  0
   -2.7612    0.2782    0.7340 H   0  0  0  0  0  0  0  0  0  0  0  0
  1  2  2  0
  2  3  2  0
  2  4  1  0
  4  5  1  0
  5  6  2  0
  6  7  1  0
  7  8  2  0
  8  9  1  0
  9 10  1  0
 10 11  2  0
 11 12  1  0
 12 13  2  0
 13 14  1  0
 14 15  2  0
 15 16  1  0
 16 17  2  0
 17 18  1  0
  9 19  2  0
  2 20  1  0
 20 21  2  0
 21 22  1  0
 22 23  2  0
 23 24  1  0
 24 25  2  0
 19  5  1  0
 25 20  1  0
 18 10  1  0
 17 12  1  0
  4 26  1  0
  6 27  1  0
  7 28  1  0
  8 29  1  0
 13 30  1  0
 14 31  1  0
 15 32  1  0
 16 33  1  0
 18 34  1  0
 19 35  1  0
 21 36  1  0
 22 37  1  0
 23 38  1  0
 25 39  1  0
M  END
$$$$
