
     RDKit          3D

 49 51  0  0  0  0  0  0  0  0999 V2000
   -7.5589    0.4550   -0.3402 C   0  0  0  0  0  0  0  0  0  0  0  0
   -6.8226   -0.8455   -0.0649 C   0  0  0  0  0  0  0  0  0  0  0  0
   -5.3065   -0.7761   -0.3146 C   0  0  2  0  0  0  0  0  0  0  0  0
   -4.7783   -2.0975   -0.0956 O   0  0  0  0  0  0  0  0  0  0  0  0
   -4.5574    0.2887    0.5620 C   0  0  1  0  0  0  0  0  0  0  0  0
   -4.6281    0.0184    2.0123 N   0  0  0  0  0  0  0  0  0  0  0  0
   -3.1109    0.4594    0.0963 C   0  0  0  0  0  0  0  0  0  0  0  0
   -2.8091    1.5051   -0.7957 C   0  0  0  0  0  0  0  0  0  0  0  0
   -1.5202    1.6562   -1.3116 C   0  0  0  0  0  0  0  0  0  0  0  0
   -0.5099    0.7570   -0.9566 C   0  0  0  0  0  0  0  0  0  0  0  0
    0.8461    0.9389   -1.5507 C   0  0  0  0  0  0  0  0  0  0  0  0
    0.9204    1.4520   -2.6609 O   0  0  0  0  0  0  0  0  0  0  0  0
    1.8863    0.5361   -0.7462 N   0  0  0  0  0  0  0  0  0  0  0  0
    3.2241    0.5693   -1.0446 C   0  0  0  0  0  0  0  0  0  0  0  0
    4.1190    0.2138   -0.1530 N   0  0  0  0  0  0  0  0  0  0  0  0
    5.3965    0.3123   -0.6911 C   0  0  0  0  0  0  0  0  0  0  0  0
    6.5746   -0.0243    0.1070 C   0  0  0  0  0  0  0  0  0  0  0  0
    6.4543   -0.1126    1.5050 C   0  0  0  0  0  0  0  0  0  0  0  0
    7.5572   -0.4326    2.3011 C   0  0  0  0  0  0  0  0  0  0  0  0
    8.7862   -0.6697    1.7015 C   0  0  0  0  0  0  0  0  0  0  0  0
    9.8450   -0.9771    2.4617 F   0  0  0  0  0  0  0  0  0  0  0  0
    8.9320   -0.5955    0.3222 C   0  0  0  0  0  0  0  0  0  0  0  0
    7.8284   -0.2749   -0.4752 C   0  0  0  0  0  0  0  0  0  0  0  0
    5.4289    0.7601   -1.9981 C   0  0  0  0  0  0  0  0  0  0  0  0
    3.8336    1.0390   -2.5610 S   0  0  0  0  0  0  0  0  0  0  0  0
   -0.8029   -0.2992   -0.0885 C   0  0  0  0  0  0  0  0  0  0  0  0
   -2.0754   -0.4177    0.4805 C   0  0  0  0  0  0  0  0  0  0  0  0
   -2.3436   -1.5614    1.2724 N   0  0  0  0  0  0  0  0  0  0  0  0
   -8.6400    0.2937   -0.2779 H   0  0  0  0  0  0  0  0  0  0  0  0
   -7.3011    1.2264    0.3909 H   0  0  0  0  0  0  0  0  0  0  0  0
   -7.3304    0.8324   -1.3418 H   0  0  0  0  0  0  0  0  0  0  0  0
   -7.0260   -1.1795    0.9596 H   0  0  0  0  0  0  0  0  0  0  0  0
   -7.2462   -1.6278   -0.7084 H   0  0  0  0  0  0  0  0  0  0  0  0
   -5.1343   -0.5433   -1.3734 H   0  0  0  0  0  0  0  0  0  0  0  0
   -5.2341   -2.6967   -0.7115 H   0  0  0  0  0  0  0  0  0  0  0  0
   -5.0514    1.2566    0.4149 H   0  0  0  0  0  0  0  0  0  0  0  0
   -5.6022   -0.0035    2.3061 H   0  0  0  0  0  0  0  0  0  0  0  0
   -4.1932    0.7978    2.5063 H   0  0  0  0  0  0  0  0  0  0  0  0
   -3.5813    2.2036   -1.1115 H   0  0  0  0  0  0  0  0  0  0  0  0
   -1.3091    2.4688   -2.0046 H   0  0  0  0  0  0  0  0  0  0  0  0
    1.7080    0.2311    0.1999 H   0  0  0  0  0  0  0  0  0  0  0  0
    5.4939    0.0704    1.9841 H   0  0  0  0  0  0  0  0  0  0  0  0
    7.4607   -0.4983    3.3799 H   0  0  0  0  0  0  0  0  0  0  0  0
    9.9012   -0.7912   -0.1256 H   0  0  0  0  0  0  0  0  0  0  0  0
    7.9680   -0.2392   -1.5521 H   0  0  0  0  0  0  0  0  0  0  0  0
    6.2734    0.9437   -2.6449 H   0  0  0  0  0  0  0  0  0  0  0  0
   -0.0605   -1.0539    0.1561 H   0  0  0  0  0  0  0  0  0  0  0  0
   -3.1125   -1.3105    1.9130 H   0  0  0  0  0  0  0  0  0  0  0  0
   -2.7918   -2.2579    0.6674 H   0  0  0  0  0  0  0  0  0  0  0  0
  1  2  1  0
  2  3  1  0
  3  4  1  0
  3  5  1  0
  5  6  1  0
  5  7  1  0
  7  8  2  0
  8  9  1  0
  9 10  2  0
 10 11  1  0
 11 12  2  0
 11 13  1  0
 13 14  1  0
 14 15  2  0
 15 16  1  0
 16 17  1  0
 17 18  2  0
 18 19  1  0
 19 20  2  0
 20 21  1  0
 20 22  1  0
 22 23  2  0
 16 24  2  0
 24 25  1  0
 10 26  1  0
 26 27  2  0
 27 28  1  0
 27  7  1  0
 25 14  1  0
 23 17  1  0
  1 29  1  0
  1 30  1  0
  1 31  1  0
  2 32  1  0
  2 33  1  0
  3 34  1  6
  4 35  1  0
  5 36  1  1
  6 37  1  0
  6 38  1  0
  8 39  1  0
  9 40  1  0
 13 41  1  0
 18 42  1  0
 19 43  1  0
 22 44  1  0
 23 45  1  0
 24 46  1  0
 26 47  1  0
 28 48  1  0
 28 49  1  0
M  END
$$$$
