
     RDKit          3D

 41 43  0  0  0  0  0  0  0  0999 V2000
    6.4117    2.0856    0.3422 O   0  0  0  0  0  0  0  0  0  0  0  0
    6.0562    0.9437    0.5803 C   0  0  0  0  0  0  0  0  0  0  0  0
    6.3889   -0.0679   -0.2420 O   0  0  0  0  0  0  0  0  0  0  0  0
    5.2624    0.4950    1.7753 C   0  0  0  0  0  0  0  0  0  0  0  0
    3.9282   -0.1438    1.3961 C   0  0  0  0  0  0  0  0  0  0  0  0
    2.9544    0.8649    0.7739 C   0  0  0  0  0  0  0  0  0  0  0  0
    1.5778    0.2600    0.4808 C   0  0  0  0  0  0  0  0  0  0  0  0
    1.6588   -0.6591   -0.6391 N   0  0  0  0  0  0  0  0  0  0  0  0
    0.4664   -1.2996   -0.9500 C   0  0  0  0  0  0  0  0  0  0  0  0
    0.5945   -2.5402   -1.4358 N   0  0  0  0  0  0  0  0  0  0  0  0
   -0.5387   -3.1860   -1.7590 C   0  0  0  0  0  0  0  0  0  0  0  0
   -1.7891   -2.6432   -1.6096 C   0  0  0  0  0  0  0  0  0  0  0  0
   -1.8246   -1.3665   -1.0933 C   0  0  0  0  0  0  0  0  0  0  0  0
   -3.0867   -0.6653   -0.8729 C   0  0  0  0  0  0  0  0  0  0  0  0
   -4.2247   -0.8670   -1.6348 C   0  0  0  0  0  0  0  0  0  0  0  0
   -5.2107   -0.0397   -1.1655 N   0  0  0  0  0  0  0  0  0  0  0  0
   -4.7474    0.7032   -0.1064 C   0  0  0  0  0  0  0  0  0  0  0  0
   -5.4033    1.6639    0.6738 C   0  0  0  0  0  0  0  0  0  0  0  0
   -4.6760    2.2751    1.6989 C   0  0  0  0  0  0  0  0  0  0  0  0
   -3.3460    1.9379    1.9322 C   0  0  0  0  0  0  0  0  0  0  0  0
   -2.7070    0.9754    1.1423 C   0  0  0  0  0  0  0  0  0  0  0  0
   -3.4143    0.3407    0.0979 C   0  0  0  0  0  0  0  0  0  0  0  0
   -0.7081   -0.6914   -0.7532 N   0  0  0  0  0  0  0  0  0  0  0  0
    6.8900    0.3665   -0.9641 H   0  0  0  0  0  0  0  0  0  0  0  0
    5.0992    1.3610    2.4271 H   0  0  0  0  0  0  0  0  0  0  0  0
    5.8784   -0.2151    2.3388 H   0  0  0  0  0  0  0  0  0  0  0  0
    4.0988   -0.9785    0.7073 H   0  0  0  0  0  0  0  0  0  0  0  0
    3.4762   -0.5657    2.3020 H   0  0  0  0  0  0  0  0  0  0  0  0
    3.3789    1.2790   -0.1487 H   0  0  0  0  0  0  0  0  0  0  0  0
    2.8211    1.7019    1.4705 H   0  0  0  0  0  0  0  0  0  0  0  0
    1.1950   -0.2441    1.3771 H   0  0  0  0  0  0  0  0  0  0  0  0
    0.8962    1.0851    0.2391 H   0  0  0  0  0  0  0  0  0  0  0  0
    2.3493   -1.3980   -0.5707 H   0  0  0  0  0  0  0  0  0  0  0  0
   -0.4043   -4.1884   -2.1540 H   0  0  0  0  0  0  0  0  0  0  0  0
   -2.6773   -3.1994   -1.8712 H   0  0  0  0  0  0  0  0  0  0  0  0
   -4.4198   -1.5114   -2.4812 H   0  0  0  0  0  0  0  0  0  0  0  0
   -6.1454    0.0277   -1.5438 H   0  0  0  0  0  0  0  0  0  0  0  0
   -6.4392    1.9313    0.4936 H   0  0  0  0  0  0  0  0  0  0  0  0
   -5.1563    3.0265    2.3212 H   0  0  0  0  0  0  0  0  0  0  0  0
   -2.7952    2.4256    2.7322 H   0  0  0  0  0  0  0  0  0  0  0  0
   -1.6682    0.7204    1.3298 H   0  0  0  0  0  0  0  0  0  0  0  0
  1  2  2  0
  2  3  1  0
  2  4  1  0
  4  5  1  0
  5  6  1  0
  6  7  1  0
  7  8  1  0
  8  9  1  0
  9 10  2  0
 10 11  1  0
 11 12  2  0
 12 13  1  0
 13 14  1  0
 14 15  2  0
 15 16  1  0
 16 17  1  0
 17 18  2  0
 18 19  1  0
 19 20  2  0
 20 21  1  0
 21 22  2  0
 13 23  2  0
 23  9  1  0
 22 14  1  0
 22 17  1  0
  3 24  1  0
  4 25  1  0
  4 26  1  0
  5 27  1  0
  5 28  1  0
  6 29  1  0
  6 30  1  0
  7 31  1  0
  7 32  1  0
  8 33  1  0
 11 34  1  0
 12 35  1  0
 15 36  1  0
 16 37  1  0
 18 38  1  0
 19 39  1  0
 20 40  1  0
 21 41  1  0
M  END
$$$$
