
     RDKit          3D

 48 50  0  0  0  0  0  0  0  0999 V2000
    5.4714    2.3819   -1.3693 C   0  0  0  0  0  0  0  0  0  0  0  0
    4.2237    2.1321   -0.5609 C   0  0  0  0  0  0  0  0  0  0  0  0
    3.6384    3.0492    0.0059 O   0  0  0  0  0  0  0  0  0  0  0  0
    3.8723    0.8000   -0.5048 N   0  0  0  0  0  0  0  0  0  0  0  0
    2.7655    0.1658    0.0642 C   0  0  0  0  0  0  0  0  0  0  0  0
    2.6694   -1.1568   -0.2028 C   0  0  0  0  0  0  0  0  0  0  0  0
    1.6381   -2.1600    0.0959 C   0  0  0  0  0  0  0  0  0  0  0  0
    2.1963   -3.5628    0.0565 C   0  0  0  0  0  0  0  0  0  0  0  0
    0.3212   -1.8711    0.1991 C   0  0  0  0  0  0  0  0  0  0  0  0
   -0.8202   -2.7737    0.0201 C   0  0  0  0  0  0  0  0  0  0  0  0
   -0.8348   -4.2508   -0.1293 C   0  0  0  0  0  0  0  0  0  0  0  0
   -1.9067   -1.9901   -0.0753 C   0  0  0  0  0  0  0  0  0  0  0  0
   -1.5567   -0.5915    0.1382 C   0  0  0  0  0  0  0  0  0  0  0  0
   -2.5605    0.4915    0.1414 C   0  0  0  0  0  0  0  0  0  0  0  0
   -2.9549    1.0950   -1.0741 C   0  0  0  0  0  0  0  0  0  0  0  0
   -2.3049    0.7396   -2.3844 C   0  0  0  0  0  0  0  0  0  0  0  0
   -4.0011    2.0346   -1.0683 C   0  0  0  0  0  0  0  0  0  0  0  0
   -4.6438    2.3699    0.1190 C   0  0  0  0  0  0  0  0  0  0  0  0
   -5.6557    3.2829    0.0584 O   0  0  0  0  0  0  0  0  0  0  0  0
   -4.2607    1.7958    1.3221 C   0  0  0  0  0  0  0  0  0  0  0  0
   -3.2178    0.8735    1.3256 C   0  0  0  0  0  0  0  0  0  0  0  0
   -2.8431    0.3831    2.5496 O   0  0  0  0  0  0  0  0  0  0  0  0
   -0.2252   -0.5092    0.3877 C   0  0  0  0  0  0  0  0  0  0  0  0
    0.4766    0.6011    0.9939 C   0  0  0  0  0  0  0  0  0  0  0  0
   -0.2753    1.3295    1.9119 O   0  0  0  0  0  0  0  0  0  0  0  0
    1.7853    0.8767    0.8856 C   0  0  0  0  0  0  0  0  0  0  0  0
    2.2531    1.8919    1.7215 O   0  0  0  0  0  0  0  0  0  0  0  0
    6.3502    2.1856   -0.7497 H   0  0  0  0  0  0  0  0  0  0  0  0
    5.4953    1.7429   -2.2567 H   0  0  0  0  0  0  0  0  0  0  0  0
    5.4860    3.4239   -1.7015 H   0  0  0  0  0  0  0  0  0  0  0  0
    4.4867    0.1904   -1.0321 H   0  0  0  0  0  0  0  0  0  0  0  0
    3.4588   -1.5961   -0.8161 H   0  0  0  0  0  0  0  0  0  0  0  0
    2.1805   -3.9601   -0.9635 H   0  0  0  0  0  0  0  0  0  0  0  0
    3.2343   -3.5861    0.4111 H   0  0  0  0  0  0  0  0  0  0  0  0
    1.6557   -4.2381    0.7234 H   0  0  0  0  0  0  0  0  0  0  0  0
   -0.2020   -4.5722   -0.9615 H   0  0  0  0  0  0  0  0  0  0  0  0
   -0.5029   -4.7391    0.7916 H   0  0  0  0  0  0  0  0  0  0  0  0
   -1.8461   -4.6185   -0.3379 H   0  0  0  0  0  0  0  0  0  0  0  0
   -2.9227   -2.3218   -0.2344 H   0  0  0  0  0  0  0  0  0  0  0  0
   -1.2181    0.8543   -2.3200 H   0  0  0  0  0  0  0  0  0  0  0  0
   -2.6486    1.3952   -3.1918 H   0  0  0  0  0  0  0  0  0  0  0  0
   -2.5504   -0.2895   -2.6646 H   0  0  0  0  0  0  0  0  0  0  0  0
   -4.3263    2.5058   -1.9927 H   0  0  0  0  0  0  0  0  0  0  0  0
   -5.9979    3.4165    0.9579 H   0  0  0  0  0  0  0  0  0  0  0  0
   -4.7411    2.0567    2.2583 H   0  0  0  0  0  0  0  0  0  0  0  0
   -1.8677    0.2955    2.4980 H   0  0  0  0  0  0  0  0  0  0  0  0
    0.3575    1.9878    2.2714 H   0  0  0  0  0  0  0  0  0  0  0  0
    2.8688    2.4388    1.1880 H   0  0  0  0  0  0  0  0  0  0  0  0
  1  2  1  0
  2  3  2  0
  2  4  1  0
  4  5  1  0
  5  6  2  0
  6  7  1  0
  7  8  1  0
  7  9  2  0
  9 10  1  0
 10 11  1  0
 10 12  2  0
 12 13  1  0
 13 14  1  0
 14 15  2  0
 15 16  1  0
 15 17  1  0
 17 18  2  0
 18 19  1  0
 18 20  1  0
 20 21  2  0
 21 22  1  0
 13 23  2  0
 23 24  1  0
 24 25  1  0
 24 26  2  0
 26 27  1  0
 26  5  1  0
 23  9  1  0
 21 14  1  0
  1 28  1  0
  1 29  1  0
  1 30  1  0
  4 31  1  0
  6 32  1  0
  8 33  1  0
  8 34  1  0
  8 35  1  0
 11 36  1  0
 11 37  1  0
 11 38  1  0
 12 39  1  0
 16 40  1  0
 16 41  1  0
 16 42  1  0
 17 43  1  0
 19 44  1  0
 20 45  1  0
 22 46  1  0
 25 47  1  0
 27 48  1  0
M  END
$$$$
