
     RDKit          3D

 44 47  0  0  0  0  0  0  0  0999 V2000
   -8.4665    0.3963   -1.1139 O   0  0  0  0  0  0  0  0  0  0  0  0
   -8.0261   -0.1240   -0.0788 N   0  0  0  0  0  0  0  0  0  0  0  0
   -8.7285   -0.6474    0.7980 O   0  0  0  0  0  0  0  0  0  0  0  0
   -6.5720   -0.1194    0.1229 C   0  0  0  0  0  0  0  0  0  0  0  0
   -5.7403    0.4783   -0.8304 C   0  0  0  0  0  0  0  0  0  0  0  0
   -4.3556    0.4792   -0.6318 C   0  0  0  0  0  0  0  0  0  0  0  0
   -3.7837   -0.1094    0.5103 C   0  0  0  0  0  0  0  0  0  0  0  0
   -2.3250   -0.1042    0.7124 C   0  0  0  0  0  0  0  0  0  0  0  0
   -1.7646    0.4309    1.8838 C   0  0  0  0  0  0  0  0  0  0  0  0
   -0.3818    0.4505    2.1098 C   0  0  0  0  0  0  0  0  0  0  0  0
    0.4441   -0.0851    1.1177 C   0  0  0  0  0  0  0  0  0  0  0  0
    1.8274   -0.2062    1.0796 N   0  0  0  0  0  0  0  0  0  0  0  0
    2.1654   -0.7785   -0.0980 C   0  0  0  0  0  0  0  0  0  0  0  0
    1.0409   -1.0680   -0.8048 C   0  0  0  0  0  0  0  0  0  0  0  0
   -0.0713   -0.6291   -0.0703 C   0  0  0  0  0  0  0  0  0  0  0  0
   -1.4651   -0.6382   -0.2676 C   0  0  0  0  0  0  0  0  0  0  0  0
    1.3787   -1.7432   -2.0617 C   0  0  0  0  0  0  0  0  0  0  0  0
    2.8724   -1.5490   -2.1471 N   0  0  0  0  0  0  0  0  0  0  0  0
    3.3989   -1.2107   -0.7692 C   0  0  0  0  0  0  0  0  0  0  0  0
    4.4940   -0.1453   -0.8791 C   0  0  0  0  0  0  0  0  0  0  0  0
    5.2399    0.0847    0.4415 C   0  0  0  0  0  0  0  0  0  0  0  0
    6.3696    1.1005    0.3028 C   0  0  0  0  0  0  0  0  0  0  0  0
    7.4226    0.5834   -0.4961 O   0  0  0  0  0  0  0  0  0  0  0  0
   -4.6411   -0.7036    1.4535 C   0  0  0  0  0  0  0  0  0  0  0  0
   -6.0274   -0.7125    1.2672 C   0  0  0  0  0  0  0  0  0  0  0  0
   -6.1470    0.9464   -1.7244 H   0  0  0  0  0  0  0  0  0  0  0  0
   -3.7177    0.9565   -1.3748 H   0  0  0  0  0  0  0  0  0  0  0  0
   -2.4147    0.8566    2.6471 H   0  0  0  0  0  0  0  0  0  0  0  0
    0.0249    0.8691    3.0245 H   0  0  0  0  0  0  0  0  0  0  0  0
    2.4494    0.0810    1.8224 H   0  0  0  0  0  0  0  0  0  0  0  0
   -1.8702   -1.0717   -1.1779 H   0  0  0  0  0  0  0  0  0  0  0  0
    0.8879   -1.2977   -2.9314 H   0  0  0  0  0  0  0  0  0  0  0  0
    1.1531   -2.8129   -2.0175 H   0  0  0  0  0  0  0  0  0  0  0  0
    3.0041   -0.7193   -2.7247 H   0  0  0  0  0  0  0  0  0  0  0  0
    3.7868   -2.1308   -0.3177 H   0  0  0  0  0  0  0  0  0  0  0  0
    5.2179   -0.4687   -1.6378 H   0  0  0  0  0  0  0  0  0  0  0  0
    4.0735    0.8074   -1.2275 H   0  0  0  0  0  0  0  0  0  0  0  0
    5.6528   -0.8702    0.7881 H   0  0  0  0  0  0  0  0  0  0  0  0
    4.5470    0.4465    1.2062 H   0  0  0  0  0  0  0  0  0  0  0  0
    6.7869    1.3213    1.2902 H   0  0  0  0  0  0  0  0  0  0  0  0
    6.0182    2.0419   -0.1319 H   0  0  0  0  0  0  0  0  0  0  0  0
    7.1277    0.5865   -1.4223 H   0  0  0  0  0  0  0  0  0  0  0  0
   -4.2265   -1.1785    2.3420 H   0  0  0  0  0  0  0  0  0  0  0  0
   -6.6591   -1.1849    2.0166 H   0  0  0  0  0  0  0  0  0  0  0  0
  1  2  2  0
  2  3  1  0
  2  4  1  0
  4  5  2  0
  5  6  1  0
  6  7  2  0
  7  8  1  0
  8  9  2  0
  9 10  1  0
 10 11  2  0
 11 12  1  0
 12 13  1  0
 13 14  2  0
 14 15  1  0
 15 16  2  0
 14 17  1  0
 17 18  1  0
 18 19  1  0
 19 20  1  0
 20 21  1  0
 21 22  1  0
 22 23  1  0
  7 24  1  0
 24 25  2  0
 25  4  1  0
 16  8  1  0
 15 11  1  0
 19 13  1  0
  5 26  1  0
  6 27  1  0
  9 28  1  0
 10 29  1  0
 12 30  1  0
 16 31  1  0
 17 32  1  0
 17 33  1  0
 18 34  1  0
 19 35  1  0
 20 36  1  0
 20 37  1  0
 21 38  1  0
 21 39  1  0
 22 40  1  0
 22 41  1  0
 23 42  1  0
 24 43  1  0
 25 44  1  0
M  CHG  2   2   1   3  -1
M  END
$$$$
