
     RDKit          3D

 44 47  0  0  0  0  0  0  0  0999 V2000
    5.5603    0.4173   -1.5747 C   0  0  0  0  0  0  0  0  0  0  0  0
    4.5752   -0.6481   -1.7214 N   0  0  0  0  0  0  0  0  0  0  0  0
    3.4205   -0.4581   -0.8256 C   0  0  0  0  0  0  0  0  0  0  0  0
    2.5818   -1.6639   -0.4798 C   0  0  0  0  0  0  0  0  0  0  0  0
    3.4331   -1.0113    0.5699 C   0  0  0  0  0  0  0  0  0  0  0  0
    2.5581   -0.0189    1.8011 S   0  0  0  0  0  0  0  0  0  0  0  0
    1.8439   -0.9580    2.6381 O   0  0  0  0  0  0  0  0  0  0  0  0
    3.5775    0.8331    2.3794 O   0  0  0  0  0  0  0  0  0  0  0  0
    1.4588    1.0554    1.0923 N   0  0  0  0  0  0  0  0  0  0  0  0
    0.1738    0.6003    0.6683 C   0  0  0  0  0  0  0  0  0  0  0  0
   -0.7523    0.0545    1.5550 C   0  0  0  0  0  0  0  0  0  0  0  0
   -2.0376   -0.3053    1.1206 C   0  0  0  0  0  0  0  0  0  0  0  0
   -3.0106   -0.9044    2.0493 C   0  0  0  0  0  0  0  0  0  0  0  0
   -3.6488   -2.1137    1.7483 C   0  0  0  0  0  0  0  0  0  0  0  0
   -4.5607   -2.6379    2.6517 C   0  0  0  0  0  0  0  0  0  0  0  0
   -4.8825   -2.0482    3.8207 N   0  0  0  0  0  0  0  0  0  0  0  0
   -4.2585   -0.8863    4.1016 C   0  0  0  0  0  0  0  0  0  0  0  0
   -3.3315   -0.2857    3.2635 C   0  0  0  0  0  0  0  0  0  0  0  0
   -2.3782   -0.0692   -0.2255 C   0  0  0  0  0  0  0  0  0  0  0  0
   -1.4753    0.5206   -1.1267 C   0  0  0  0  0  0  0  0  0  0  0  0
   -1.8024    0.8094   -2.5381 C   0  0  0  0  0  0  0  0  0  0  0  0
   -1.0537    1.5646   -3.3223 N   0  0  0  0  0  0  0  0  0  0  0  0
   -1.6004    1.6417   -4.5870 C   0  0  0  0  0  0  0  0  0  0  0  0
   -2.7680    0.9384   -4.7706 C   0  0  0  0  0  0  0  0  0  0  0  0
   -3.1980    0.1508   -3.3144 S   0  0  0  0  0  0  0  0  0  0  0  0
   -0.2020    0.8674   -0.6476 C   0  0  0  0  0  0  0  0  0  0  0  0
    5.9732    0.4397   -0.5610 H   0  0  0  0  0  0  0  0  0  0  0  0
    6.3847    0.2538   -2.2753 H   0  0  0  0  0  0  0  0  0  0  0  0
    5.1201    1.3938   -1.8011 H   0  0  0  0  0  0  0  0  0  0  0  0
    5.0322   -1.5473   -1.5687 H   0  0  0  0  0  0  0  0  0  0  0  0
    2.8750    0.4620   -1.0178 H   0  0  0  0  0  0  0  0  0  0  0  0
    1.5065   -1.5564   -0.4435 H   0  0  0  0  0  0  0  0  0  0  0  0
    2.8934   -2.6355   -0.8466 H   0  0  0  0  0  0  0  0  0  0  0  0
    4.3034   -1.5399    0.9275 H   0  0  0  0  0  0  0  0  0  0  0  0
    1.4229    1.9069    1.6566 H   0  0  0  0  0  0  0  0  0  0  0  0
   -0.4787   -0.1083    2.5956 H   0  0  0  0  0  0  0  0  0  0  0  0
   -3.4342   -2.6531    0.8315 H   0  0  0  0  0  0  0  0  0  0  0  0
   -5.0695   -3.5766    2.4513 H   0  0  0  0  0  0  0  0  0  0  0  0
   -4.5317   -0.4314    5.0496 H   0  0  0  0  0  0  0  0  0  0  0  0
   -2.8779    0.6558    3.5557 H   0  0  0  0  0  0  0  0  0  0  0  0
   -3.3843   -0.3278   -0.5513 H   0  0  0  0  0  0  0  0  0  0  0  0
   -1.0994    2.2307   -5.3457 H   0  0  0  0  0  0  0  0  0  0  0  0
   -3.3685    0.8510   -5.6644 H   0  0  0  0  0  0  0  0  0  0  0  0
    0.5102    1.3465   -1.3186 H   0  0  0  0  0  0  0  0  0  0  0  0
  1  2  1  0
  2  3  1  0
  3  4  1  0
  4  5  1  0
  5  6  1  0
  6  7  2  0
  6  8  2  0
  6  9  1  0
  9 10  1  0
 10 11  2  0
 11 12  1  0
 12 13  1  0
 13 14  2  0
 14 15  1  0
 15 16  2  0
 16 17  1  0
 17 18  2  0
 12 19  2  0
 19 20  1  0
 20 21  1  0
 21 22  2  0
 22 23  1  0
 23 24  2  0
 24 25  1  0
 20 26  2  0
  5  3  1  0
 26 10  1  0
 18 13  1  0
 25 21  1  0
  1 27  1  0
  1 28  1  0
  1 29  1  0
  2 30  1  0
  3 31  1  0
  4 32  1  0
  4 33  1  0
  5 34  1  0
  9 35  1  0
 11 36  1  0
 14 37  1  0
 15 38  1  0
 17 39  1  0
 18 40  1  0
 19 41  1  0
 23 42  1  0
 24 43  1  0
 26 44  1  0
M  END
$$$$
