
     RDKit          3D

 42 45  0  0  0  0  0  0  0  0999 V2000
    2.4365   -0.5068   -0.7376 N   0  0  0  0  0  0  0  0  0  0  0  0
    2.9550    0.6978   -0.1431 C   0  0  0  0  0  0  0  0  0  0  0  0
    2.7442    1.8109   -1.0054 O   0  0  0  0  0  0  0  0  0  0  0  0
    4.2797    0.6788    0.5573 C   0  0  0  0  0  0  0  0  0  0  0  0
    3.0237    1.0385    1.3082 C   0  0  0  0  0  0  0  0  0  0  0  0
    2.5195   -0.1993    2.5137 S   0  0  0  0  0  0  0  0  0  0  0  0
    3.2715    0.1142    3.7109 O   0  0  0  0  0  0  0  0  0  0  0  0
    2.6088   -1.5110    1.9053 O   0  0  0  0  0  0  0  0  0  0  0  0
    0.8995    0.1154    2.9144 N   0  0  0  0  0  0  0  0  0  0  0  0
   -0.0349    0.1269    1.8373 C   0  0  0  0  0  0  0  0  0  0  0  0
   -0.4426   -1.0749    1.2606 C   0  0  0  0  0  0  0  0  0  0  0  0
   -1.2931   -1.0831    0.1472 C   0  0  0  0  0  0  0  0  0  0  0  0
   -1.7151   -2.3478   -0.4772 C   0  0  0  0  0  0  0  0  0  0  0  0
   -2.2601   -3.3886    0.2842 C   0  0  0  0  0  0  0  0  0  0  0  0
   -2.6426   -4.5605   -0.3507 C   0  0  0  0  0  0  0  0  0  0  0  0
   -2.5217   -4.7702   -1.6774 N   0  0  0  0  0  0  0  0  0  0  0  0
   -1.9919   -3.7624   -2.3998 C   0  0  0  0  0  0  0  0  0  0  0  0
   -1.5820   -2.5548   -1.8557 C   0  0  0  0  0  0  0  0  0  0  0  0
   -1.7174    0.1566   -0.3649 C   0  0  0  0  0  0  0  0  0  0  0  0
   -1.3178    1.3818    0.2029 C   0  0  0  0  0  0  0  0  0  0  0  0
   -1.7893    2.6362   -0.4156 C   0  0  0  0  0  0  0  0  0  0  0  0
   -2.2731    2.7125   -1.6421 N   0  0  0  0  0  0  0  0  0  0  0  0
   -2.6435    4.0092   -1.9357 C   0  0  0  0  0  0  0  0  0  0  0  0
   -2.4450    4.9241   -0.9279 C   0  0  0  0  0  0  0  0  0  0  0  0
   -1.7760    4.1386    0.4366 S   0  0  0  0  0  0  0  0  0  0  0  0
   -0.4643    1.3475    1.3143 C   0  0  0  0  0  0  0  0  0  0  0  0
    3.0568   -0.8249   -1.4825 H   0  0  0  0  0  0  0  0  0  0  0  0
    2.4346   -1.2819   -0.0607 H   0  0  0  0  0  0  0  0  0  0  0  0
    2.0057    1.5989   -1.6034 H   0  0  0  0  0  0  0  0  0  0  0  0
    4.9805    1.4755    0.3366 H   0  0  0  0  0  0  0  0  0  0  0  0
    4.7551   -0.2756    0.7521 H   0  0  0  0  0  0  0  0  0  0  0  0
    2.8987    2.0692    1.6050 H   0  0  0  0  0  0  0  0  0  0  0  0
    0.8408    0.8916    3.5734 H   0  0  0  0  0  0  0  0  0  0  0  0
   -0.0725   -2.0138    1.6694 H   0  0  0  0  0  0  0  0  0  0  0  0
   -2.3974   -3.2923    1.3564 H   0  0  0  0  0  0  0  0  0  0  0  0
   -3.0709   -5.3857    0.2113 H   0  0  0  0  0  0  0  0  0  0  0  0
   -1.8983   -3.9551   -3.4646 H   0  0  0  0  0  0  0  0  0  0  0  0
   -1.1531   -1.7948   -2.5011 H   0  0  0  0  0  0  0  0  0  0  0  0
   -2.3839    0.1728   -1.2289 H   0  0  0  0  0  0  0  0  0  0  0  0
   -3.0588    4.2340   -2.9108 H   0  0  0  0  0  0  0  0  0  0  0  0
   -2.6581    5.9833   -0.9282 H   0  0  0  0  0  0  0  0  0  0  0  0
   -0.1073    2.2689    1.7643 H   0  0  0  0  0  0  0  0  0  0  0  0
  1  2  1  0
  2  3  1  0
  2  4  1  0
  4  5  1  0
  5  6  1  0
  6  7  2  0
  6  8  2  0
  6  9  1  0
  9 10  1  0
 10 11  2  0
 11 12  1  0
 12 13  1  0
 13 14  2  0
 14 15  1  0
 15 16  2  0
 16 17  1  0
 17 18  2  0
 12 19  2  0
 19 20  1  0
 20 21  1  0
 21 22  2  0
 22 23  1  0
 23 24  2  0
 24 25  1  0
 20 26  2  0
  5  2  1  0
 26 10  1  0
 18 13  1  0
 25 21  1  0
  1 27  1  0
  1 28  1  0
  3 29  1  0
  4 30  1  0
  4 31  1  0
  5 32  1  0
  9 33  1  0
 11 34  1  0
 14 35  1  0
 15 36  1  0
 17 37  1  0
 18 38  1  0
 19 39  1  0
 23 40  1  0
 24 41  1  0
 26 42  1  0
M  END
$$$$
