
     RDKit          3D

 81 88  0  0  0  0  0  0  0  0999 V2000
    7.1421    2.8296    2.0418 O   0  0  0  0  0  0  0  0  0  0  0  0
    7.5819    1.7236    1.4783 C   0  0  0  0  0  0  0  0  0  0  0  0
    8.8432    1.3902    1.5173 N   0  0  0  0  0  0  0  0  0  0  0  0
    8.9135    0.2311    0.7878 C   0  0  0  0  0  0  0  0  0  0  0  0
   10.0344   -0.5552    0.4794 C   0  0  0  0  0  0  0  0  0  0  0  0
    9.8616   -1.6978   -0.3089 C   0  0  0  0  0  0  0  0  0  0  0  0
    8.5972   -2.0551   -0.7781 C   0  0  0  0  0  0  0  0  0  0  0  0
    7.4658   -1.2876   -0.4762 C   0  0  0  0  0  0  0  0  0  0  0  0
    7.6558   -0.1471    0.3140 C   0  0  0  0  0  0  0  0  0  0  0  0
    6.8056    0.8296    0.7955 N   0  0  0  0  0  0  0  0  0  0  0  0
    5.3722    0.9119    0.5565 C   0  0  0  0  0  0  0  0  0  0  0  0
    4.5333    1.1043    1.8260 C   0  0  0  0  0  0  0  0  0  0  0  0
    3.0442    1.1591    1.4813 C   0  0  0  0  0  0  0  0  0  0  0  0
    2.7771    2.1985    0.4835 N   0  0  0  0  0  0  0  0  0  0  0  0
    1.3437    2.4515    0.2677 C   0  0  0  0  0  0  0  0  0  0  0  0
    0.4885    1.2589   -0.1072 C   0  0  0  0  0  0  0  0  0  0  0  0
   -0.2592    0.5937    0.8748 C   0  0  0  0  0  0  0  0  0  0  0  0
   -1.0360   -0.5204    0.5466 C   0  0  0  0  0  0  0  0  0  0  0  0
   -1.0853   -1.0046   -0.7702 C   0  0  0  0  0  0  0  0  0  0  0  0
   -1.8836   -2.1901   -1.1158 C   0  0  0  0  0  0  0  0  0  0  0  0
   -1.1477   -3.2317   -1.5943 N   0  0  0  0  0  0  0  0  0  0  0  0
   -1.7964   -4.3808   -1.8496 C   0  0  0  0  0  0  0  0  0  0  0  0
   -1.0873   -5.4757   -2.3276 C   0  0  0  0  0  0  0  0  0  0  0  0
   -1.7215   -6.6902   -2.5947 C   0  0  0  0  0  0  0  0  0  0  0  0
   -3.0875   -6.8129   -2.3787 C   0  0  0  0  0  0  0  0  0  0  0  0
   -3.8075   -5.7175   -1.8997 C   0  0  0  0  0  0  0  0  0  0  0  0
   -3.1872   -4.5035   -1.6331 C   0  0  0  0  0  0  0  0  0  0  0  0
   -3.9195   -3.4703   -1.1814 N   0  0  0  0  0  0  0  0  0  0  0  0
   -3.2708   -2.2972   -0.9368 C   0  0  0  0  0  0  0  0  0  0  0  0
   -4.1558   -1.1963   -0.5159 C   0  0  0  0  0  0  0  0  0  0  0  0
   -4.1627    0.0424   -1.1725 C   0  0  0  0  0  0  0  0  0  0  0  0
   -5.0296    1.0736   -0.7794 C   0  0  0  0  0  0  0  0  0  0  0  0
   -5.9245    0.9148    0.2854 C   0  0  0  0  0  0  0  0  0  0  0  0
   -6.8298    1.9050    0.6929 N   0  0  0  0  0  0  0  0  0  0  0  0
   -7.0487    3.0633   -0.1985 C   0  0  0  0  0  0  0  0  0  0  0  0
   -8.2424    3.8901    0.3049 C   0  0  0  0  0  0  0  0  0  0  0  0
   -8.0407    4.3295    1.6581 O   0  0  0  0  0  0  0  0  0  0  0  0
   -7.8845    3.1940    2.5229 C   0  0  0  0  0  0  0  0  0  0  0  0
   -6.6873    2.3196    2.1099 C   0  0  0  0  0  0  0  0  0  0  0  0
   -5.9262   -0.3339    0.9261 C   0  0  0  0  0  0  0  0  0  0  0  0
   -5.0641   -1.3677    0.5358 C   0  0  0  0  0  0  0  0  0  0  0  0
   -0.3308   -0.3373   -1.7481 C   0  0  0  0  0  0  0  0  0  0  0  0
    0.4321    0.7893   -1.4250 C   0  0  0  0  0  0  0  0  0  0  0  0
    3.5249    1.9935   -0.7564 C   0  0  0  0  0  0  0  0  0  0  0  0
    5.0289    1.9792   -0.4858 C   0  0  0  0  0  0  0  0  0  0  0  0
    7.9636    3.1923    2.4198 H   0  0  0  0  0  0  0  0  0  0  0  0
   11.0145   -0.2688    0.8453 H   0  0  0  0  0  0  0  0  0  0  0  0
   10.7245   -2.3106   -0.5585 H   0  0  0  0  0  0  0  0  0  0  0  0
    8.4880   -2.9456   -1.3928 H   0  0  0  0  0  0  0  0  0  0  0  0
    6.4885   -1.5761   -0.8460 H   0  0  0  0  0  0  0  0  0  0  0  0
    5.0807   -0.0613    0.1379 H   0  0  0  0  0  0  0  0  0  0  0  0
    4.8061    2.0301    2.3442 H   0  0  0  0  0  0  0  0  0  0  0  0
    4.7176    0.2823    2.5287 H   0  0  0  0  0  0  0  0  0  0  0  0
    2.7253    0.1714    1.1227 H   0  0  0  0  0  0  0  0  0  0  0  0
    2.4897    1.3683    2.4043 H   0  0  0  0  0  0  0  0  0  0  0  0
    1.2118    3.2358   -0.4899 H   0  0  0  0  0  0  0  0  0  0  0  0
    0.9364    2.8990    1.1851 H   0  0  0  0  0  0  0  0  0  0  0  0
   -0.2346    0.9335    1.9076 H   0  0  0  0  0  0  0  0  0  0  0  0
   -1.5957   -1.0196    1.3358 H   0  0  0  0  0  0  0  0  0  0  0  0
   -0.0173   -5.3791   -2.4923 H   0  0  0  0  0  0  0  0  0  0  0  0
   -1.1462   -7.5336   -2.9676 H   0  0  0  0  0  0  0  0  0  0  0  0
   -3.5949   -7.7533   -2.5798 H   0  0  0  0  0  0  0  0  0  0  0  0
   -4.8775   -5.8073   -1.7306 H   0  0  0  0  0  0  0  0  0  0  0  0
   -3.4991    0.2219   -2.0162 H   0  0  0  0  0  0  0  0  0  0  0  0
   -4.9744    2.0070   -1.3317 H   0  0  0  0  0  0  0  0  0  0  0  0
   -7.2616    2.7321   -1.2224 H   0  0  0  0  0  0  0  0  0  0  0  0
   -6.1535    3.6981   -0.2059 H   0  0  0  0  0  0  0  0  0  0  0  0
   -9.1722    3.3117    0.2511 H   0  0  0  0  0  0  0  0  0  0  0  0
   -8.3651    4.7814   -0.3177 H   0  0  0  0  0  0  0  0  0  0  0  0
   -8.8139    2.6119    2.5160 H   0  0  0  0  0  0  0  0  0  0  0  0
   -7.7364    3.5704    3.5403 H   0  0  0  0  0  0  0  0  0  0  0  0
   -5.7607    2.8974    2.2212 H   0  0  0  0  0  0  0  0  0  0  0  0
   -6.6405    1.4625    2.7898 H   0  0  0  0  0  0  0  0  0  0  0  0
   -6.6397   -0.5330    1.7216 H   0  0  0  0  0  0  0  0  0  0  0  0
   -5.1220   -2.3242    1.0529 H   0  0  0  0  0  0  0  0  0  0  0  0
   -0.3340   -0.7013   -2.7736 H   0  0  0  0  0  0  0  0  0  0  0  0
    0.9917    1.2891   -2.2113 H   0  0  0  0  0  0  0  0  0  0  0  0
    3.3166    2.8088   -1.4608 H   0  0  0  0  0  0  0  0  0  0  0  0
    3.2400    1.0534   -1.2439 H   0  0  0  0  0  0  0  0  0  0  0  0
    5.3501    2.9711   -0.1436 H   0  0  0  0  0  0  0  0  0  0  0  0
    5.5652    1.7814   -1.4221 H   0  0  0  0  0  0  0  0  0  0  0  0
  1  2  1  0
  2  3  2  0
  3  4  1  0
  4  5  2  0
  5  6  1  0
  6  7  2  0
  7  8  1  0
  8  9  2  0
  9 10  1  0
 10 11  1  0
 11 12  1  0
 12 13  1  0
 13 14  1  0
 14 15  1  0
 15 16  1  0
 16 17  2  0
 17 18  1  0
 18 19  2  0
 19 20  1  0
 20 21  2  0
 21 22  1  0
 22 23  2  0
 23 24  1  0
 24 25  2  0
 25 26  1  0
 26 27  2  0
 27 28  1  0
 28 29  2  0
 29 30  1  0
 30 31  2  0
 31 32  1  0
 32 33  2  0
 33 34  1  0
 34 35  1  0
 35 36  1  0
 36 37  1  0
 37 38  1  0
 38 39  1  0
 33 40  1  0
 40 41  2  0
 19 42  1  0
 42 43  2  0
 14 44  1  0
 44 45  1  0
 10  2  1  0
 45 11  1  0
  9  4  1  0
 43 16  1  0
 29 20  1  0
 41 30  1  0
 27 22  1  0
 39 34  1  0
  1 46  1  0
  5 47  1  0
  6 48  1  0
  7 49  1  0
  8 50  1  0
 11 51  1  0
 12 52  1  0
 12 53  1  0
 13 54  1  0
 13 55  1  0
 15 56  1  0
 15 57  1  0
 17 58  1  0
 18 59  1  0
 23 60  1  0
 24 61  1  0
 25 62  1  0
 26 63  1  0
 31 64  1  0
 32 65  1  0
 35 66  1  0
 35 67  1  0
 36 68  1  0
 36 69  1  0
 38 70  1  0
 38 71  1  0
 39 72  1  0
 39 73  1  0
 40 74  1  0
 41 75  1  0
 42 76  1  0
 43 77  1  0
 44 78  1  0
 44 79  1  0
 45 80  1  0
 45 81  1  0
M  END
$$$$
