
     RDKit          3D

 76 79  0  0  0  0  0  0  0  0999 V2000
    8.2197    1.1420    5.0230 C   0  0  0  0  0  0  0  0  0  0  0  0
    7.2988    0.9920    3.9544 O   0  0  0  0  0  0  0  0  0  0  0  0
    7.8159    0.7801    2.7072 C   0  0  0  0  0  0  0  0  0  0  0  0
    9.1636    0.5831    2.4113 C   0  0  0  0  0  0  0  0  0  0  0  0
    9.5687    0.3926    1.0867 C   0  0  0  0  0  0  0  0  0  0  0  0
    8.6230    0.3775    0.0597 C   0  0  0  0  0  0  0  0  0  0  0  0
    9.1077    0.2088   -1.2104 O   0  0  0  0  0  0  0  0  0  0  0  0
    7.2614    0.5353    0.3402 C   0  0  0  0  0  0  0  0  0  0  0  0
    6.2736    0.4846   -0.7653 C   0  0  0  0  0  0  0  0  0  0  0  0
    6.6457    0.8063   -1.8952 O   0  0  0  0  0  0  0  0  0  0  0  0
    4.8800    0.0203   -0.5643 C   0  0  0  0  0  0  0  0  0  0  0  0
    4.6012   -1.0978    0.2330 C   0  0  0  0  0  0  0  0  0  0  0  0
    3.2763   -1.5102    0.4062 C   0  0  0  0  0  0  0  0  0  0  0  0
    2.2248   -0.8123   -0.2130 C   0  0  0  0  0  0  0  0  0  0  0  0
    0.8395   -1.3151   -0.0145 C   0  0  0  0  0  0  0  0  0  0  0  0
    0.6553   -2.4859    0.3089 O   0  0  0  0  0  0  0  0  0  0  0  0
   -0.1858   -0.4056   -0.1727 N   0  0  0  0  0  0  0  0  0  0  0  0
   -1.5718   -0.8119    0.0546 C   0  0  2  0  0  0  0  0  0  0  0  0
   -2.1245   -1.5841   -1.1553 C   0  0  0  0  0  0  0  0  0  0  0  0
   -3.5756   -2.0150   -0.9157 C   0  0  0  0  0  0  0  0  0  0  0  0
   -4.4330   -0.8817   -0.5535 N   0  0  0  0  0  0  0  0  0  0  0  0
   -5.8605   -1.2867   -0.4303 C   0  0  0  0  0  0  0  0  0  0  0  0
   -6.2577   -2.1826    0.7777 C   0  0  0  0  0  0  0  0  0  0  0  0
   -6.2517   -1.3480    1.9625 O   0  0  0  0  0  0  0  0  0  0  0  0
   -7.6754   -2.7894    0.6974 C   0  0  0  0  0  0  0  0  0  0  0  0
   -8.6288   -1.7803    0.3448 O   0  0  0  0  0  0  0  0  0  0  0  0
   -7.8176   -4.0061   -0.2256 C   0  0  0  0  0  0  0  0  0  0  0  0
   -7.2835   -3.7848   -1.5233 O   0  0  0  0  0  0  0  0  0  0  0  0
   -3.9283   -0.1809    0.6418 C   0  0  0  0  0  0  0  0  0  0  0  0
   -2.5070    0.3725    0.3958 C   0  0  0  0  0  0  0  0  0  0  0  0
   -2.5314    1.3802   -0.6705 N   0  0  0  0  0  0  0  0  0  0  0  0
   -1.6546    2.4375   -0.7084 C   0  0  0  0  0  0  0  0  0  0  0  0
   -0.7798    2.6124    0.1397 O   0  0  0  0  0  0  0  0  0  0  0  0
   -1.8287    3.4076   -1.8154 C   0  0  0  0  0  0  0  0  0  0  0  0
   -1.5002    4.7439   -1.5814 C   0  0  0  0  0  0  0  0  0  0  0  0
   -1.6556    5.6423   -2.6228 C   0  0  0  0  0  0  0  0  0  0  0  0
   -2.0945    5.2913   -3.8524 N   0  0  0  0  0  0  0  0  0  0  0  0
   -2.3936    3.9898   -4.0508 C   0  0  0  0  0  0  0  0  0  0  0  0
   -2.2791    3.0140   -3.0753 C   0  0  0  0  0  0  0  0  0  0  0  0
    2.5107    0.2889   -1.0344 C   0  0  0  0  0  0  0  0  0  0  0  0
    3.8393    0.6969   -1.2178 C   0  0  0  0  0  0  0  0  0  0  0  0
    6.8745    0.7634    1.6646 C   0  0  0  0  0  0  0  0  0  0  0  0
    5.5883    1.0107    1.9503 F   0  0  0  0  0  0  0  0  0  0  0  0
    8.7888    0.2145    5.1883 H   0  0  0  0  0  0  0  0  0  0  0  0
    8.8796    2.0022    4.8533 H   0  0  0  0  0  0  0  0  0  0  0  0
    7.6507    1.3468    5.9379 H   0  0  0  0  0  0  0  0  0  0  0  0
    9.9298    0.5904    3.1806 H   0  0  0  0  0  0  0  0  0  0  0  0
   10.6260    0.2698    0.8518 H   0  0  0  0  0  0  0  0  0  0  0  0
    8.3895    0.4456   -1.8384 H   0  0  0  0  0  0  0  0  0  0  0  0
    5.3968   -1.6559    0.7227 H   0  0  0  0  0  0  0  0  0  0  0  0
    3.0615   -2.3790    1.0296 H   0  0  0  0  0  0  0  0  0  0  0  0
    0.0219    0.5829   -0.0786 H   0  0  0  0  0  0  0  0  0  0  0  0
   -1.5663   -1.4880    0.9218 H   0  0  0  0  0  0  0  0  0  0  0  0
   -2.0678   -0.9673   -2.0600 H   0  0  0  0  0  0  0  0  0  0  0  0
   -1.5214   -2.4773   -1.3541 H   0  0  0  0  0  0  0  0  0  0  0  0
   -3.5803   -2.7854   -0.1376 H   0  0  0  0  0  0  0  0  0  0  0  0
   -3.9450   -2.4786   -1.8382 H   0  0  0  0  0  0  0  0  0  0  0  0
   -6.1351   -1.7553   -1.3803 H   0  0  0  0  0  0  0  0  0  0  0  0
   -6.4469   -0.3591   -0.3883 H   0  0  0  0  0  0  0  0  0  0  0  0
   -5.5284   -2.9813    0.9369 H   0  0  0  0  0  0  0  0  0  0  0  0
   -6.2113   -1.9445    2.7325 H   0  0  0  0  0  0  0  0  0  0  0  0
   -7.9751   -3.1139    1.7022 H   0  0  0  0  0  0  0  0  0  0  0  0
   -8.4135   -1.0047    0.8977 H   0  0  0  0  0  0  0  0  0  0  0  0
   -8.8774   -4.2585   -0.3414 H   0  0  0  0  0  0  0  0  0  0  0  0
   -7.2919   -4.8674    0.1983 H   0  0  0  0  0  0  0  0  0  0  0  0
   -7.6638   -4.4597   -2.1098 H   0  0  0  0  0  0  0  0  0  0  0  0
   -4.5916    0.6555    0.8915 H   0  0  0  0  0  0  0  0  0  0  0  0
   -3.8962   -0.8511    1.5100 H   0  0  0  0  0  0  0  0  0  0  0  0
   -2.1543    0.8610    1.3132 H   0  0  0  0  0  0  0  0  0  0  0  0
   -3.2916    1.2966   -1.3299 H   0  0  0  0  0  0  0  0  0  0  0  0
   -1.1345    5.0779   -0.6162 H   0  0  0  0  0  0  0  0  0  0  0  0
   -1.4287    6.6954   -2.4954 H   0  0  0  0  0  0  0  0  0  0  0  0
   -2.7349    3.7429   -5.0546 H   0  0  0  0  0  0  0  0  0  0  0  0
   -2.5105    1.9851   -3.3124 H   0  0  0  0  0  0  0  0  0  0  0  0
    1.7166    0.8214   -1.5555 H   0  0  0  0  0  0  0  0  0  0  0  0
    4.0559    1.5433   -1.8691 H   0  0  0  0  0  0  0  0  0  0  0  0
  1  2  1  0
  2  3  1  0
  3  4  2  0
  4  5  1  0
  5  6  2  0
  6  7  1  0
  6  8  1  0
  8  9  1  0
  9 10  2  0
  9 11  1  0
 11 12  2  0
 12 13  1  0
 13 14  2  0
 14 15  1  0
 15 16  2  0
 15 17  1  0
 17 18  1  0
 18 19  1  0
 19 20  1  0
 20 21  1  0
 21 22  1  0
 22 23  1  0
 23 24  1  0
 23 25  1  0
 25 26  1  0
 25 27  1  0
 27 28  1  0
 21 29  1  0
 29 30  1  0
 30 31  1  0
 31 32  1  0
 32 33  2  0
 32 34  1  0
 34 35  2  0
 35 36  1  0
 36 37  2  0
 37 38  1  0
 38 39  2  0
 14 40  1  0
 40 41  2  0
  8 42  2  0
 42 43  1  0
 42  3  1  0
 41 11  1  0
 30 18  1  0
 39 34  1  0
  1 44  1  0
  1 45  1  0
  1 46  1  0
  4 47  1  0
  5 48  1  0
  7 49  1  0
 12 50  1  0
 13 51  1  0
 17 52  1  0
 18 53  1  1
 19 54  1  0
 19 55  1  0
 20 56  1  0
 20 57  1  0
 22 58  1  0
 22 59  1  0
 23 60  1  0
 24 61  1  0
 25 62  1  0
 26 63  1  0
 27 64  1  0
 27 65  1  0
 28 66  1  0
 29 67  1  0
 29 68  1  0
 30 69  1  0
 31 70  1  0
 35 71  1  0
 36 72  1  0
 38 73  1  0
 39 74  1  0
 40 75  1  0
 41 76  1  0
M  END
$$$$
