
     RDKit          3D

 39 42  0  0  0  0  0  0  0  0999 V2000
   -0.7910   -3.3195   -1.2970 N   0  0  0  0  0  0  0  0  0  0  0  0
   -0.9865   -2.6842   -0.0071 C   0  0  0  0  0  0  0  0  0  0  0  0
   -1.4742   -1.2315   -0.0842 C   0  0  0  0  0  0  0  0  0  0  0  0
   -0.7681   -0.3828   -1.1524 C   0  0  0  0  0  0  0  0  0  0  0  0
   -1.6347   -0.4212   -2.4388 C   0  0  0  0  0  0  0  0  0  0  0  0
   -1.9635   -1.3966   -3.0949 O   0  0  0  0  0  0  0  0  0  0  0  0
   -2.0474    0.8713   -2.7017 N   0  0  0  0  0  0  0  0  0  0  0  0
   -1.5572    1.7585   -1.7660 C   0  0  0  0  0  0  0  0  0  0  0  0
   -1.8135    3.1050   -1.7248 C   0  0  0  0  0  0  0  0  0  0  0  0
   -1.2326    3.8231   -0.6836 C   0  0  0  0  0  0  0  0  0  0  0  0
   -0.3942    3.2326    0.2626 C   0  0  0  0  0  0  0  0  0  0  0  0
    0.0888    4.0477    1.2011 N   0  0  0  0  0  0  0  0  0  0  0  0
    0.9082    3.5163    2.1083 C   0  0  0  0  0  0  0  0  0  0  0  0
    1.3111    2.2487    2.1421 N   0  0  0  0  0  0  0  0  0  0  0  0
    0.8357    1.4298    1.1722 C   0  0  0  0  0  0  0  0  0  0  0  0
    1.4734    0.1049    1.2364 C   0  0  0  0  0  0  0  0  0  0  0  0
    1.3364   -0.6969    2.3848 C   0  0  0  0  0  0  0  0  0  0  0  0
    2.0062   -1.9192    2.4967 C   0  0  0  0  0  0  0  0  0  0  0  0
    2.8285   -2.3524    1.4602 C   0  0  0  0  0  0  0  0  0  0  0  0
    3.6488   -3.8583    1.5924 Cl  0  0  0  0  0  0  0  0  0  0  0  0
    2.9943   -1.5698    0.3206 C   0  0  0  0  0  0  0  0  0  0  0  0
    2.3303   -0.3428    0.2163 C   0  0  0  0  0  0  0  0  0  0  0  0
   -0.0942    1.8530    0.1901 C   0  0  0  0  0  0  0  0  0  0  0  0
   -0.7475    1.1060   -0.8314 C   0  0  0  0  0  0  0  0  0  0  0  0
   -0.7748   -4.3328   -1.1957 H   0  0  0  0  0  0  0  0  0  0  0  0
   -1.5577   -3.0999   -1.9418 H   0  0  0  0  0  0  0  0  0  0  0  0
   -1.7107   -3.2628    0.5777 H   0  0  0  0  0  0  0  0  0  0  0  0
   -0.0402   -2.7268    0.5353 H   0  0  0  0  0  0  0  0  0  0  0  0
   -1.3535   -0.7896    0.9116 H   0  0  0  0  0  0  0  0  0  0  0  0
   -2.5573   -1.2415   -0.2703 H   0  0  0  0  0  0  0  0  0  0  0  0
    0.2350   -0.7265   -1.4140 H   0  0  0  0  0  0  0  0  0  0  0  0
   -2.6498    1.0981   -3.4791 H   0  0  0  0  0  0  0  0  0  0  0  0
   -2.4499    3.5951   -2.4525 H   0  0  0  0  0  0  0  0  0  0  0  0
   -1.4320    4.8914   -0.6072 H   0  0  0  0  0  0  0  0  0  0  0  0
    1.2873    4.1771    2.8799 H   0  0  0  0  0  0  0  0  0  0  0  0
    0.7158   -0.3547    3.2116 H   0  0  0  0  0  0  0  0  0  0  0  0
    1.8867   -2.5197    3.3943 H   0  0  0  0  0  0  0  0  0  0  0  0
    3.6440   -1.9011   -0.4852 H   0  0  0  0  0  0  0  0  0  0  0  0
    2.4997    0.2718   -0.6661 H   0  0  0  0  0  0  0  0  0  0  0  0
  1  2  1  0
  2  3  1  0
  3  4  1  0
  4  5  1  0
  5  6  2  0
  5  7  1  0
  7  8  1  0
  8  9  2  0
  9 10  1  0
 10 11  2  0
 11 12  1  0
 12 13  2  0
 13 14  1  0
 14 15  2  0
 15 16  1  0
 16 17  2  0
 17 18  1  0
 18 19  2  0
 19 20  1  0
 19 21  1  0
 21 22  2  0
 15 23  1  0
 23 24  2  0
 24  4  1  0
 24  8  1  0
 23 11  1  0
 22 16  1  0
  1 25  1  0
  1 26  1  0
  2 27  1  0
  2 28  1  0
  3 29  1  0
  3 30  1  0
  4 31  1  0
  7 32  1  0
  9 33  1  0
 10 34  1  0
 13 35  1  0
 17 36  1  0
 18 37  1  0
 21 38  1  0
 22 39  1  0
M  END
$$$$
