
     RDKit          3D

 46 49  0  0  0  0  0  0  0  0999 V2000
    1.3377    1.4568   -3.1910 C   0  0  0  0  0  0  0  0  0  0  0  0
    1.1138    0.2675   -2.2958 C   0  0  0  0  0  0  0  0  0  0  0  0
   -0.0049   -0.1939   -2.0965 O   0  0  0  0  0  0  0  0  0  0  0  0
    2.2763   -0.2435   -1.7511 N   0  0  0  0  0  0  0  0  0  0  0  0
    2.2881   -1.4085   -0.9082 C   0  0  0  0  0  0  0  0  0  0  0  0
    3.5428   -2.2390   -0.7996 C   0  0  0  0  0  0  0  0  0  0  0  0
    3.0773   -1.4206    0.3737 C   0  0  0  0  0  0  0  0  0  0  0  0
    2.3641   -2.4148    1.7109 S   0  0  0  0  0  0  0  0  0  0  0  0
    3.4889   -2.8865    2.4902 O   0  0  0  0  0  0  0  0  0  0  0  0
    1.4223   -3.3575    1.1472 O   0  0  0  0  0  0  0  0  0  0  0  0
    1.4962   -1.3671    2.7361 N   0  0  0  0  0  0  0  0  0  0  0  0
    0.4813   -0.5859    2.1001 C   0  0  0  0  0  0  0  0  0  0  0  0
   -0.7576   -1.1386    1.7849 C   0  0  0  0  0  0  0  0  0  0  0  0
   -1.7114   -0.3801    1.0948 C   0  0  0  0  0  0  0  0  0  0  0  0
   -3.0029   -0.9625    0.7124 C   0  0  0  0  0  0  0  0  0  0  0  0
   -3.9163   -1.4028    1.6753 C   0  0  0  0  0  0  0  0  0  0  0  0
   -5.1213   -1.9450    1.2554 C   0  0  0  0  0  0  0  0  0  0  0  0
   -5.4738   -2.0826   -0.0396 N   0  0  0  0  0  0  0  0  0  0  0  0
   -4.5786   -1.6588   -0.9563 C   0  0  0  0  0  0  0  0  0  0  0  0
   -3.3522   -1.0998   -0.6354 C   0  0  0  0  0  0  0  0  0  0  0  0
   -1.3872    0.9420    0.7399 C   0  0  0  0  0  0  0  0  0  0  0  0
   -0.1356    1.5094    1.0379 C   0  0  0  0  0  0  0  0  0  0  0  0
    0.1415    2.8920    0.6049 C   0  0  0  0  0  0  0  0  0  0  0  0
   -0.7951    3.7698    0.2983 N   0  0  0  0  0  0  0  0  0  0  0  0
   -0.2200    4.9565   -0.0841 C   0  0  0  0  0  0  0  0  0  0  0  0
   -0.9594    6.0183   -0.4371 F   0  0  0  0  0  0  0  0  0  0  0  0
    1.1521    4.9944   -0.0903 C   0  0  0  0  0  0  0  0  0  0  0  0
    1.7591    3.4740    0.4041 S   0  0  0  0  0  0  0  0  0  0  0  0
    0.7936    0.7235    1.7314 C   0  0  0  0  0  0  0  0  0  0  0  0
    0.5209    2.1706   -3.0501 H   0  0  0  0  0  0  0  0  0  0  0  0
    2.2762    1.9647   -2.9512 H   0  0  0  0  0  0  0  0  0  0  0  0
    1.3610    1.1244   -4.2319 H   0  0  0  0  0  0  0  0  0  0  0  0
    3.1610    0.1094   -2.0970 H   0  0  0  0  0  0  0  0  0  0  0  0
    1.3537   -1.9679   -0.9445 H   0  0  0  0  0  0  0  0  0  0  0  0
    4.4360   -1.9142   -1.3182 H   0  0  0  0  0  0  0  0  0  0  0  0
    3.4285   -3.3181   -0.7698 H   0  0  0  0  0  0  0  0  0  0  0  0
    3.6560   -0.5583    0.6643 H   0  0  0  0  0  0  0  0  0  0  0  0
    1.1316   -1.9397    3.5010 H   0  0  0  0  0  0  0  0  0  0  0  0
   -0.9743   -2.1748    2.0368 H   0  0  0  0  0  0  0  0  0  0  0  0
   -3.7027   -1.3183    2.7356 H   0  0  0  0  0  0  0  0  0  0  0  0
   -5.8576   -2.2931    1.9742 H   0  0  0  0  0  0  0  0  0  0  0  0
   -4.8781   -1.7856   -1.9922 H   0  0  0  0  0  0  0  0  0  0  0  0
   -2.6738   -0.7893   -1.4259 H   0  0  0  0  0  0  0  0  0  0  0  0
   -2.1226    1.5369    0.1958 H   0  0  0  0  0  0  0  0  0  0  0  0
    1.7967    5.8185   -0.3558 H   0  0  0  0  0  0  0  0  0  0  0  0
    1.7688    1.1182    2.0035 H   0  0  0  0  0  0  0  0  0  0  0  0
  1  2  1  0
  2  3  2  0
  2  4  1  0
  4  5  1  0
  5  6  1  0
  6  7  1  0
  7  8  1  0
  8  9  2  0
  8 10  2  0
  8 11  1  0
 11 12  1  0
 12 13  2  0
 13 14  1  0
 14 15  1  0
 15 16  2  0
 16 17  1  0
 17 18  2  0
 18 19  1  0
 19 20  2  0
 14 21  2  0
 21 22  1  0
 22 23  1  0
 23 24  2  0
 24 25  1  0
 25 26  1  0
 25 27  2  0
 27 28  1  0
 22 29  2  0
  7  5  1  0
 29 12  1  0
 20 15  1  0
 28 23  1  0
  1 30  1  0
  1 31  1  0
  1 32  1  0
  4 33  1  0
  5 34  1  0
  6 35  1  0
  6 36  1  0
  7 37  1  0
 11 38  1  0
 13 39  1  0
 16 40  1  0
 17 41  1  0
 19 42  1  0
 20 43  1  0
 21 44  1  0
 27 45  1  0
 29 46  1  0
M  END
$$$$
