
     RDKit          3D

 39 42  0  0  0  0  0  0  0  0999 V2000
    0.7351   -3.2114   -1.5997 N   0  0  0  0  0  0  0  0  0  0  0  0
    0.9636   -2.6871   -0.2661 C   0  0  0  0  0  0  0  0  0  0  0  0
    1.4589   -1.2354   -0.2331 C   0  0  0  0  0  0  0  0  0  0  0  0
    0.7282   -0.2957   -1.2041 C   0  0  0  0  0  0  0  0  0  0  0  0
    1.5569   -0.2274   -2.5141 C   0  0  0  0  0  0  0  0  0  0  0  0
    1.8607   -1.1443   -3.2605 O   0  0  0  0  0  0  0  0  0  0  0  0
    1.9702    1.0811   -2.6778 N   0  0  0  0  0  0  0  0  0  0  0  0
    1.5138    1.8869   -1.6554 C   0  0  0  0  0  0  0  0  0  0  0  0
    1.7811    3.2236   -1.5064 C   0  0  0  0  0  0  0  0  0  0  0  0
    1.2369    3.8521   -0.3901 C   0  0  0  0  0  0  0  0  0  0  0  0
    0.4228    3.1862    0.5268 C   0  0  0  0  0  0  0  0  0  0  0  0
   -0.0254    3.9197    1.5463 N   0  0  0  0  0  0  0  0  0  0  0  0
   -0.8212    3.3160    2.4290 C   0  0  0  0  0  0  0  0  0  0  0  0
   -1.2327    2.0524    2.3655 N   0  0  0  0  0  0  0  0  0  0  0  0
   -0.7933    1.3178    1.3144 C   0  0  0  0  0  0  0  0  0  0  0  0
   -1.4410   -0.0037    1.2829 C   0  0  0  0  0  0  0  0  0  0  0  0
   -1.2778   -0.9026    2.3551 C   0  0  0  0  0  0  0  0  0  0  0  0
   -1.9585   -2.1224    2.3819 C   0  0  0  0  0  0  0  0  0  0  0  0
   -2.8138   -2.4502    1.3381 C   0  0  0  0  0  0  0  0  0  0  0  0
   -3.4670   -3.6191    1.3627 F   0  0  0  0  0  0  0  0  0  0  0  0
   -3.0072   -1.5787    0.2741 C   0  0  0  0  0  0  0  0  0  0  0  0
   -2.3328   -0.3545    0.2531 C   0  0  0  0  0  0  0  0  0  0  0  0
    0.1102    1.8195    0.3448 C   0  0  0  0  0  0  0  0  0  0  0  0
    0.7273    1.1602   -0.7564 C   0  0  0  0  0  0  0  0  0  0  0  0
    1.4861   -2.9388   -2.2427 H   0  0  0  0  0  0  0  0  0  0  0  0
    0.7178   -4.2296   -1.5837 H   0  0  0  0  0  0  0  0  0  0  0  0
    1.6972   -3.3157    0.2514 H   0  0  0  0  0  0  0  0  0  0  0  0
    0.0294   -2.7704    0.2925 H   0  0  0  0  0  0  0  0  0  0  0  0
    1.3694   -0.8797    0.7998 H   0  0  0  0  0  0  0  0  0  0  0  0
    2.5362   -1.2341   -0.4506 H   0  0  0  0  0  0  0  0  0  0  0  0
   -0.2845   -0.6115   -1.4642 H   0  0  0  0  0  0  0  0  0  0  0  0
    2.5516    1.3710   -3.4503 H   0  0  0  0  0  0  0  0  0  0  0  0
    2.3993    3.7715   -2.2081 H   0  0  0  0  0  0  0  0  0  0  0  0
    1.4465    4.9088   -0.2282 H   0  0  0  0  0  0  0  0  0  0  0  0
   -1.1717    3.9095    3.2660 H   0  0  0  0  0  0  0  0  0  0  0  0
   -0.6294   -0.6378    3.1888 H   0  0  0  0  0  0  0  0  0  0  0  0
   -1.8331   -2.8103    3.2116 H   0  0  0  0  0  0  0  0  0  0  0  0
   -3.6884   -1.8506   -0.5260 H   0  0  0  0  0  0  0  0  0  0  0  0
   -2.5213    0.3350   -0.5678 H   0  0  0  0  0  0  0  0  0  0  0  0
  1  2  1  0
  2  3  1  0
  3  4  1  0
  4  5  1  0
  5  6  2  0
  5  7  1  0
  7  8  1  0
  8  9  2  0
  9 10  1  0
 10 11  2  0
 11 12  1  0
 12 13  2  0
 13 14  1  0
 14 15  2  0
 15 16  1  0
 16 17  2  0
 17 18  1  0
 18 19  2  0
 19 20  1  0
 19 21  1  0
 21 22  2  0
 15 23  1  0
 23 24  2  0
 24  4  1  0
 24  8  1  0
 23 11  1  0
 22 16  1  0
  1 25  1  0
  1 26  1  0
  2 27  1  0
  2 28  1  0
  3 29  1  0
  3 30  1  0
  4 31  1  0
  7 32  1  0
  9 33  1  0
 10 34  1  0
 13 35  1  0
 17 36  1  0
 18 37  1  0
 21 38  1  0
 22 39  1  0
M  END
$$$$
