
     RDKit          3D

 42 45  0  0  0  0  0  0  0  0999 V2000
   -2.2160    4.6241   -0.0155 C   0  0  0  0  0  0  0  0  0  0  0  0
   -1.7823    3.1843   -0.1514 C   0  0  0  0  0  0  0  0  0  0  0  0
   -2.6684    2.2705   -0.7319 C   0  0  0  0  0  0  0  0  0  0  0  0
   -2.2636    0.9633   -0.8161 C   0  0  0  0  0  0  0  0  0  0  0  0
   -1.0192    0.5187   -0.3672 C   0  0  0  0  0  0  0  0  0  0  0  0
   -0.0761    1.4486    0.1526 C   0  0  0  0  0  0  0  0  0  0  0  0
    1.2642    1.2296    0.5612 C   0  0  0  0  0  0  0  0  0  0  0  0
    2.0376   -0.0063    0.3535 C   0  0  0  0  0  0  0  0  0  0  0  0
    2.6002   -0.6875    1.4507 C   0  0  0  0  0  0  0  0  0  0  0  0
    3.4147   -1.8070    1.2625 C   0  0  0  0  0  0  0  0  0  0  0  0
    3.6781   -2.2509   -0.0266 C   0  0  0  0  0  0  0  0  0  0  0  0
    4.4586   -3.3239   -0.2084 F   0  0  0  0  0  0  0  0  0  0  0  0
    3.1510   -1.5915   -1.1296 C   0  0  0  0  0  0  0  0  0  0  0  0
    2.3448   -0.4654   -0.9403 C   0  0  0  0  0  0  0  0  0  0  0  0
    2.0322    2.1890    1.1305 N   0  0  0  0  0  0  0  0  0  0  0  0
    1.4915    3.3967    1.2431 C   0  0  0  0  0  0  0  0  0  0  0  0
    0.2707    3.7405    0.8352 N   0  0  0  0  0  0  0  0  0  0  0  0
   -0.5028    2.7926    0.2928 C   0  0  0  0  0  0  0  0  0  0  0  0
   -0.9719   -0.9943   -0.5453 C   0  0  0  0  0  0  0  0  0  0  0  0
   -0.9447   -1.7671    0.7821 C   0  0  0  0  0  0  0  0  0  0  0  0
   -0.2779   -3.1464    0.6977 C   0  0  0  0  0  0  0  0  0  0  0  0
   -0.6442   -3.9189   -0.4747 N   0  0  0  0  0  0  0  0  0  0  0  0
   -2.3333   -1.2792   -1.2322 C   0  0  0  0  0  0  0  0  0  0  0  0
   -2.7899   -2.3564   -1.5804 O   0  0  0  0  0  0  0  0  0  0  0  0
   -3.0064   -0.0772   -1.3345 N   0  0  0  0  0  0  0  0  0  0  0  0
   -3.2347    4.7742   -0.3889 H   0  0  0  0  0  0  0  0  0  0  0  0
   -1.5528    5.2761   -0.5932 H   0  0  0  0  0  0  0  0  0  0  0  0
   -2.2040    4.9272    1.0366 H   0  0  0  0  0  0  0  0  0  0  0  0
   -3.6466    2.5790   -1.0851 H   0  0  0  0  0  0  0  0  0  0  0  0
    2.4187   -0.3267    2.4619 H   0  0  0  0  0  0  0  0  0  0  0  0
    3.8493   -2.3264    2.1103 H   0  0  0  0  0  0  0  0  0  0  0  0
    3.3790   -1.9490   -2.1287 H   0  0  0  0  0  0  0  0  0  0  0  0
    1.9687    0.0643   -1.8138 H   0  0  0  0  0  0  0  0  0  0  0  0
    2.0989    4.1724    1.6956 H   0  0  0  0  0  0  0  0  0  0  0  0
   -0.1809   -1.2692   -1.2462 H   0  0  0  0  0  0  0  0  0  0  0  0
   -0.4231   -1.1956    1.5585 H   0  0  0  0  0  0  0  0  0  0  0  0
   -1.9689   -1.9024    1.1571 H   0  0  0  0  0  0  0  0  0  0  0  0
   -0.5352   -3.7116    1.6008 H   0  0  0  0  0  0  0  0  0  0  0  0
    0.8077   -3.0316    0.6983 H   0  0  0  0  0  0  0  0  0  0  0  0
   -0.4393   -4.9058   -0.3292 H   0  0  0  0  0  0  0  0  0  0  0  0
   -1.6489   -3.8510   -0.6689 H   0  0  0  0  0  0  0  0  0  0  0  0
   -3.9349   -0.0099   -1.7243 H   0  0  0  0  0  0  0  0  0  0  0  0
  1  2  1  0
  2  3  2  0
  3  4  1  0
  4  5  2  0
  5  6  1  0
  6  7  2  0
  7  8  1  0
  8  9  2  0
  9 10  1  0
 10 11  2  0
 11 12  1  0
 11 13  1  0
 13 14  2  0
  7 15  1  0
 15 16  2  0
 16 17  1  0
 17 18  2  0
  5 19  1  0
 19 20  1  0
 20 21  1  0
 21 22  1  0
 19 23  1  0
 23 24  2  0
 23 25  1  0
 18  2  1  0
 25  4  1  0
 18  6  1  0
 14  8  1  0
  1 26  1  0
  1 27  1  0
  1 28  1  0
  3 29  1  0
  9 30  1  0
 10 31  1  0
 13 32  1  0
 14 33  1  0
 16 34  1  0
 19 35  1  0
 20 36  1  0
 20 37  1  0
 21 38  1  0
 21 39  1  0
 22 40  1  0
 22 41  1  0
 25 42  1  0
M  END
$$$$
