
     RDKit          3D

 46 47  0  0  0  0  0  0  0  0999 V2000
   -7.2336    0.8545   -0.9197 C   0  0  0  0  0  0  0  0  0  0  0  0
   -6.5029    0.5633    0.3833 C   0  0  0  0  0  0  0  0  0  0  0  0
   -4.9808    0.6890    0.2620 C   0  0  0  0  0  0  0  0  0  0  0  0
   -4.2382   -0.6422    0.0499 C   0  0  0  0  0  0  0  0  0  0  0  0
   -4.6141   -1.3471   -1.2512 C   0  0  0  0  0  0  0  0  0  0  0  0
   -2.7978   -0.3980    0.0756 N   0  0  0  0  0  0  0  0  0  0  0  0
   -1.9063   -1.3618    0.4931 C   0  0  0  0  0  0  0  0  0  0  0  0
   -2.2162   -2.4587    0.9346 O   0  0  0  0  0  0  0  0  0  0  0  0
   -0.4782   -0.9979    0.3705 C   0  0  0  0  0  0  0  0  0  0  0  0
    0.0038   -0.5575   -0.8691 C   0  0  0  0  0  0  0  0  0  0  0  0
    1.3550   -0.2337   -1.0182 C   0  0  0  0  0  0  0  0  0  0  0  0
    2.2497   -0.3455    0.0584 C   0  0  0  0  0  0  0  0  0  0  0  0
    3.6725   -0.0038   -0.1010 C   0  0  0  0  0  0  0  0  0  0  0  0
    4.3009    0.9091    0.7615 C   0  0  0  0  0  0  0  0  0  0  0  0
    5.6552    1.2380    0.6128 C   0  0  0  0  0  0  0  0  0  0  0  0
    6.4097    0.6573   -0.4041 C   0  0  0  0  0  0  0  0  0  0  0  0
    7.7324    0.8884   -0.6599 O   0  0  0  0  0  0  0  0  0  0  0  0
    8.4076    1.7899    0.2082 C   0  0  0  0  0  0  0  0  0  0  0  0
    5.7975   -0.2514   -1.2677 C   0  0  0  0  0  0  0  0  0  0  0  0
    4.4459   -0.5793   -1.1197 C   0  0  0  0  0  0  0  0  0  0  0  0
    1.7476   -0.7954    1.2929 C   0  0  0  0  0  0  0  0  0  0  0  0
    0.3917   -1.1258    1.4581 C   0  0  0  0  0  0  0  0  0  0  0  0
   -0.0591   -1.5373    2.7569 C   0  0  0  0  0  0  0  0  0  0  0  0
   -0.3655   -1.8216    3.8398 N   0  0  0  0  0  0  0  0  0  0  0  0
   -6.9551    0.1559   -1.7120 H   0  0  0  0  0  0  0  0  0  0  0  0
   -7.0169    1.8693   -1.2692 H   0  0  0  0  0  0  0  0  0  0  0  0
   -8.3151    0.7764   -0.7687 H   0  0  0  0  0  0  0  0  0  0  0  0
   -6.7854   -0.4254    0.7616 H   0  0  0  0  0  0  0  0  0  0  0  0
   -6.8520    1.2928    1.1248 H   0  0  0  0  0  0  0  0  0  0  0  0
   -4.7140    1.4057   -0.5253 H   0  0  0  0  0  0  0  0  0  0  0  0
   -4.6084    1.1262    1.1989 H   0  0  0  0  0  0  0  0  0  0  0  0
   -4.4748   -1.3146    0.8840 H   0  0  0  0  0  0  0  0  0  0  0  0
   -5.6588   -1.6703   -1.2404 H   0  0  0  0  0  0  0  0  0  0  0  0
   -4.0005   -2.2417   -1.4055 H   0  0  0  0  0  0  0  0  0  0  0  0
   -4.4592   -0.6915   -2.1150 H   0  0  0  0  0  0  0  0  0  0  0  0
   -2.4521    0.4669   -0.3196 H   0  0  0  0  0  0  0  0  0  0  0  0
   -0.6592   -0.4869   -1.7287 H   0  0  0  0  0  0  0  0  0  0  0  0
    1.7099    0.1113   -1.9888 H   0  0  0  0  0  0  0  0  0  0  0  0
    3.7352    1.3871    1.5592 H   0  0  0  0  0  0  0  0  0  0  0  0
    6.0847    1.9521    1.3076 H   0  0  0  0  0  0  0  0  0  0  0  0
    9.4487    1.8556   -0.1222 H   0  0  0  0  0  0  0  0  0  0  0  0
    7.9751    2.7940    0.1477 H   0  0  0  0  0  0  0  0  0  0  0  0
    8.4080    1.4203    1.2390 H   0  0  0  0  0  0  0  0  0  0  0  0
    6.3788   -0.7133   -2.0623 H   0  0  0  0  0  0  0  0  0  0  0  0
    4.0070   -1.3024   -1.8041 H   0  0  0  0  0  0  0  0  0  0  0  0
    2.4271   -0.8997    2.1400 H   0  0  0  0  0  0  0  0  0  0  0  0
  1  2  1  0
  2  3  1  0
  3  4  1  0
  4  5  1  0
  4  6  1  0
  6  7  1  0
  7  8  2  0
  7  9  1  0
  9 10  2  0
 10 11  1  0
 11 12  2  0
 12 13  1  0
 13 14  2  0
 14 15  1  0
 15 16  2  0
 16 17  1  0
 17 18  1  0
 16 19  1  0
 19 20  2  0
 12 21  1  0
 21 22  2  0
 22 23  1  0
 23 24  3  0
 22  9  1  0
 20 13  1  0
  1 25  1  0
  1 26  1  0
  1 27  1  0
  2 28  1  0
  2 29  1  0
  3 30  1  0
  3 31  1  0
  4 32  1  0
  5 33  1  0
  5 34  1  0
  5 35  1  0
  6 36  1  0
 10 37  1  0
 11 38  1  0
 14 39  1  0
 15 40  1  0
 18 41  1  0
 18 42  1  0
 18 43  1  0
 19 44  1  0
 20 45  1  0
 21 46  1  0
M  END
$$$$
