
     RDKit          3D

 63 66  0  0  0  0  0  0  0  0999 V2000
    9.1673   -3.1176   -1.2249 C   0  0  0  0  0  0  0  0  0  0  0  0
    9.3359   -1.8429   -0.6147 O   0  0  0  0  0  0  0  0  0  0  0  0
    8.2163   -1.2463   -0.1044 C   0  0  0  0  0  0  0  0  0  0  0  0
    8.4495   -0.0308    0.5489 C   0  0  0  0  0  0  0  0  0  0  0  0
    7.3975    0.6811    1.1282 C   0  0  0  0  0  0  0  0  0  0  0  0
    6.1031    0.1824    1.0423 C   0  0  0  0  0  0  0  0  0  0  0  0
    5.1137    0.8685    1.6317 F   0  0  0  0  0  0  0  0  0  0  0  0
    5.8511   -1.0133    0.3711 C   0  0  0  0  0  0  0  0  0  0  0  0
    4.4885   -1.5755    0.2698 C   0  0  0  0  0  0  0  0  0  0  0  0
    4.3448   -2.7880    0.4158 O   0  0  0  0  0  0  0  0  0  0  0  0
    3.3037   -0.7320   -0.0338 C   0  0  0  0  0  0  0  0  0  0  0  0
    3.3950    0.4221   -0.8190 C   0  0  0  0  0  0  0  0  0  0  0  0
    2.2446    1.1675   -1.0984 C   0  0  0  0  0  0  0  0  0  0  0  0
    0.9916    0.7606   -0.6154 C   0  0  0  0  0  0  0  0  0  0  0  0
   -0.1930    1.6055   -0.9499 C   0  0  0  0  0  0  0  0  0  0  0  0
   -0.0355    2.7702   -1.3041 O   0  0  0  0  0  0  0  0  0  0  0  0
   -1.4313    1.0128   -0.8663 N   0  0  0  0  0  0  0  0  0  0  0  0
   -2.6830    1.7443   -1.0892 C   0  0  2  0  0  0  0  0  0  0  0  0
   -3.0342    2.5378    0.1801 C   0  0  0  0  0  0  0  0  0  0  0  0
   -4.4524    3.0887    0.3261 C   0  0  0  0  0  0  0  0  0  0  0  0
   -5.1671    3.4731   -0.9638 C   0  0  0  0  0  0  0  0  0  0  0  0
   -5.8000    2.3185   -1.6078 N   0  0  0  0  0  0  0  0  0  0  0  0
   -4.8602    1.5231   -2.4093 C   0  0  0  0  0  0  0  0  0  0  0  0
   -3.7795    0.7754   -1.5995 C   0  0  0  0  0  0  0  0  0  0  0  0
   -4.3998   -0.0217   -0.5359 N   0  0  0  0  0  0  0  0  0  0  0  0
   -3.7494   -1.0315    0.1284 C   0  0  0  0  0  0  0  0  0  0  0  0
   -2.6018   -1.3785   -0.1369 O   0  0  0  0  0  0  0  0  0  0  0  0
   -4.5029   -1.7178    1.2097 C   0  0  0  0  0  0  0  0  0  0  0  0
   -5.5050   -1.0791    1.9418 C   0  0  0  0  0  0  0  0  0  0  0  0
   -6.1399   -1.8038    2.9361 C   0  0  0  0  0  0  0  0  0  0  0  0
   -5.8442   -3.0867    3.2361 N   0  0  0  0  0  0  0  0  0  0  0  0
   -4.8591   -3.6741    2.5218 C   0  0  0  0  0  0  0  0  0  0  0  0
   -4.1618   -3.0374    1.5124 C   0  0  0  0  0  0  0  0  0  0  0  0
    0.9044   -0.3993    0.1656 C   0  0  0  0  0  0  0  0  0  0  0  0
    2.0544   -1.1457    0.4458 C   0  0  0  0  0  0  0  0  0  0  0  0
    6.9136   -1.7406   -0.1877 C   0  0  0  0  0  0  0  0  0  0  0  0
    8.7818   -3.8504   -0.5079 H   0  0  0  0  0  0  0  0  0  0  0  0
    8.5231   -3.0505   -2.1071 H   0  0  0  0  0  0  0  0  0  0  0  0
   10.1520   -3.4615   -1.5581 H   0  0  0  0  0  0  0  0  0  0  0  0
    9.4638    0.3577    0.6163 H   0  0  0  0  0  0  0  0  0  0  0  0
    7.5842    1.6140    1.6508 H   0  0  0  0  0  0  0  0  0  0  0  0
    4.3435    0.7556   -1.2310 H   0  0  0  0  0  0  0  0  0  0  0  0
    2.3256    2.0689   -1.7039 H   0  0  0  0  0  0  0  0  0  0  0  0
   -1.5293    0.0368   -0.5887 H   0  0  0  0  0  0  0  0  0  0  0  0
   -2.4705    2.4653   -1.8895 H   0  0  0  0  0  0  0  0  0  0  0  0
   -2.8200    1.9303    1.0703 H   0  0  0  0  0  0  0  0  0  0  0  0
   -2.3358    3.3831    0.2469 H   0  0  0  0  0  0  0  0  0  0  0  0
   -4.3996    3.9753    0.9724 H   0  0  0  0  0  0  0  0  0  0  0  0
   -5.0660    2.3702    0.8855 H   0  0  0  0  0  0  0  0  0  0  0  0
   -5.9760    4.1636   -0.6935 H   0  0  0  0  0  0  0  0  0  0  0  0
   -4.5128    4.0244   -1.6497 H   0  0  0  0  0  0  0  0  0  0  0  0
   -6.5212    2.6706   -2.2419 H   0  0  0  0  0  0  0  0  0  0  0  0
   -4.4023    2.1406   -3.1920 H   0  0  0  0  0  0  0  0  0  0  0  0
   -5.4618    0.7682   -2.9323 H   0  0  0  0  0  0  0  0  0  0  0  0
   -3.3085    0.0585   -2.2867 H   0  0  0  0  0  0  0  0  0  0  0  0
   -5.3498    0.2433   -0.3029 H   0  0  0  0  0  0  0  0  0  0  0  0
   -5.7799   -0.0442    1.7782 H   0  0  0  0  0  0  0  0  0  0  0  0
   -6.9235   -1.3557    3.5428 H   0  0  0  0  0  0  0  0  0  0  0  0
   -4.6374   -4.7031    2.7932 H   0  0  0  0  0  0  0  0  0  0  0  0
   -3.3767   -3.5578    0.9726 H   0  0  0  0  0  0  0  0  0  0  0  0
   -0.0401   -0.7389    0.5821 H   0  0  0  0  0  0  0  0  0  0  0  0
    1.9714   -2.0506    1.0461 H   0  0  0  0  0  0  0  0  0  0  0  0
    6.6906   -2.6831   -0.6803 H   0  0  0  0  0  0  0  0  0  0  0  0
  1  2  1  0
  2  3  1  0
  3  4  2  0
  4  5  1  0
  5  6  2  0
  6  7  1  0
  6  8  1  0
  8  9  1  0
  9 10  2  0
  9 11  1  0
 11 12  2  0
 12 13  1  0
 13 14  2  0
 14 15  1  0
 15 16  2  0
 15 17  1  0
 17 18  1  0
 18 19  1  0
 19 20  1  0
 20 21  1  0
 21 22  1  0
 22 23  1  0
 23 24  1  0
 24 25  1  0
 25 26  1  0
 26 27  2  0
 26 28  1  0
 28 29  2  0
 29 30  1  0
 30 31  2  0
 31 32  1  0
 32 33  2  0
 14 34  1  0
 34 35  2  0
  8 36  2  0
 36  3  1  0
 35 11  1  0
 24 18  1  0
 33 28  1  0
  1 37  1  0
  1 38  1  0
  1 39  1  0
  4 40  1  0
  5 41  1  0
 12 42  1  0
 13 43  1  0
 17 44  1  0
 18 45  1  6
 19 46  1  0
 19 47  1  0
 20 48  1  0
 20 49  1  0
 21 50  1  0
 21 51  1  0
 22 52  1  0
 23 53  1  0
 23 54  1  0
 24 55  1  0
 25 56  1  0
 29 57  1  0
 30 58  1  0
 32 59  1  0
 33 60  1  0
 34 61  1  0
 35 62  1  0
 36 63  1  0
M  END
$$$$
