
     RDKit          3D

 62 64  0  0  0  0  0  0  0  0999 V2000
    0.2331   -3.3898    0.4407 C   0  0  0  0  0  0  0  0  0  0  0  0
    0.6699   -2.3221   -0.5536 C   0  0  0  0  0  0  0  0  0  0  0  0
    0.3083   -0.9686   -0.1119 N   0  0  0  0  0  0  0  0  0  0  0  0
   -1.0864   -0.5428   -0.3029 C   0  0  0  0  0  0  0  0  0  0  0  0
   -1.2983    0.5097   -1.4166 C   0  0  0  0  0  0  0  0  0  0  0  0
   -0.7616   -0.0003   -2.7680 C   0  0  0  0  0  0  0  0  0  0  0  0
   -1.6344    0.7075   -3.7881 C   0  0  0  0  0  0  0  0  0  0  0  0
   -2.9973    0.6588   -3.1205 C   0  0  0  0  0  0  0  0  0  0  0  0
   -2.7120    0.8488   -1.7020 N   0  0  0  0  0  0  0  0  0  0  0  0
   -3.5018    1.7374   -0.9878 C   0  0  0  0  0  0  0  0  0  0  0  0
   -4.4639    2.3165   -1.5035 O   0  0  0  0  0  0  0  0  0  0  0  0
   -3.1793    2.0344    0.4911 C   0  0  1  0  0  0  0  0  0  0  0  0
   -3.5781    3.3548    0.8508 O   0  0  0  0  0  0  0  0  0  0  0  0
   -3.8459    1.0173    1.4321 C   0  0  0  0  0  0  0  0  0  0  0  0
   -5.3890    0.9193    1.4001 C   0  0  0  0  0  0  0  0  0  0  0  0
   -5.8326   -0.2531    2.2842 C   0  0  0  0  0  0  0  0  0  0  0  0
   -6.0973    2.1908    1.8634 C   0  0  0  0  0  0  0  0  0  0  0  0
    1.1963   -0.0302    0.4225 C   0  0  0  0  0  0  0  0  0  0  0  0
    0.8327    1.1198    0.6499 O   0  0  0  0  0  0  0  0  0  0  0  0
    2.5511   -0.4386    0.6710 C   0  0  0  0  0  0  0  0  0  0  0  0
    3.7314    0.1013    0.2048 C   0  0  0  0  0  0  0  0  0  0  0  0
    4.7782   -0.6784    0.7716 C   0  0  0  0  0  0  0  0  0  0  0  0
    6.2259   -0.5465    0.5663 C   0  0  0  0  0  0  0  0  0  0  0  0
    6.7679    0.5586   -0.1132 C   0  0  0  0  0  0  0  0  0  0  0  0
    8.1494    0.6668   -0.3060 C   0  0  0  0  0  0  0  0  0  0  0  0
    8.9922   -0.3266    0.1775 C   0  0  0  0  0  0  0  0  0  0  0  0
   10.3130   -0.2186   -0.0130 F   0  0  0  0  0  0  0  0  0  0  0  0
    8.4837   -1.4272    0.8521 C   0  0  0  0  0  0  0  0  0  0  0  0
    7.1039   -1.5344    1.0487 C   0  0  0  0  0  0  0  0  0  0  0  0
    4.2619   -1.6269    1.5690 N   0  0  0  0  0  0  0  0  0  0  0  0
    2.9389   -1.4112    1.5434 N   0  0  0  0  0  0  0  0  0  0  0  0
   -0.8575   -3.4285    0.5264 H   0  0  0  0  0  0  0  0  0  0  0  0
    0.6318   -3.2006    1.4413 H   0  0  0  0  0  0  0  0  0  0  0  0
    0.5792   -4.3744    0.1111 H   0  0  0  0  0  0  0  0  0  0  0  0
    0.1953   -2.5122   -1.5211 H   0  0  0  0  0  0  0  0  0  0  0  0
    1.7480   -2.3961   -0.7203 H   0  0  0  0  0  0  0  0  0  0  0  0
   -1.4075   -0.1358    0.6566 H   0  0  0  0  0  0  0  0  0  0  0  0
   -1.7124   -1.4209   -0.4897 H   0  0  0  0  0  0  0  0  0  0  0  0
   -0.7944    1.4502   -1.1696 H   0  0  0  0  0  0  0  0  0  0  0  0
   -0.9092   -1.0816   -2.8721 H   0  0  0  0  0  0  0  0  0  0  0  0
    0.3023    0.2160   -2.9025 H   0  0  0  0  0  0  0  0  0  0  0  0
   -1.6248    0.2256   -4.7685 H   0  0  0  0  0  0  0  0  0  0  0  0
   -1.3062    1.7426   -3.9044 H   0  0  0  0  0  0  0  0  0  0  0  0
   -3.4521   -0.3318   -3.2295 H   0  0  0  0  0  0  0  0  0  0  0  0
   -3.6806    1.4069   -3.5321 H   0  0  0  0  0  0  0  0  0  0  0  0
   -2.0980    2.0139    0.6405 H   0  0  0  0  0  0  0  0  0  0  0  0
   -4.0867    3.6988    0.0878 H   0  0  0  0  0  0  0  0  0  0  0  0
   -3.5393    1.2551    2.4586 H   0  0  0  0  0  0  0  0  0  0  0  0
   -3.4554    0.0195    1.2089 H   0  0  0  0  0  0  0  0  0  0  0  0
   -5.7168    0.6996    0.3783 H   0  0  0  0  0  0  0  0  0  0  0  0
   -5.5277   -0.1043    3.3243 H   0  0  0  0  0  0  0  0  0  0  0  0
   -6.9212   -0.3696    2.2659 H   0  0  0  0  0  0  0  0  0  0  0  0
   -5.3922   -1.1921    1.9337 H   0  0  0  0  0  0  0  0  0  0  0  0
   -7.1692    2.0117    1.9998 H   0  0  0  0  0  0  0  0  0  0  0  0
   -5.6937    2.5492    2.8153 H   0  0  0  0  0  0  0  0  0  0  0  0
   -6.0085    2.9905    1.1214 H   0  0  0  0  0  0  0  0  0  0  0  0
    3.8130    0.9380   -0.4730 H   0  0  0  0  0  0  0  0  0  0  0  0
    6.1321    1.3547   -0.4902 H   0  0  0  0  0  0  0  0  0  0  0  0
    8.5712    1.5220   -0.8269 H   0  0  0  0  0  0  0  0  0  0  0  0
    9.1540   -2.1955    1.2216 H   0  0  0  0  0  0  0  0  0  0  0  0
    6.7145   -2.3999    1.5848 H   0  0  0  0  0  0  0  0  0  0  0  0
    2.3522   -1.9774    2.1447 H   0  0  0  0  0  0  0  0  0  0  0  0
  1  2  1  0
  2  3  1  0
  3  4  1  0
  4  5  1  0
  5  6  1  0
  6  7  1  0
  7  8  1  0
  8  9  1  0
  9 10  1  0
 10 11  2  0
 10 12  1  0
 12 13  1  0
 12 14  1  0
 14 15  1  0
 15 16  1  0
 15 17  1  0
  3 18  1  0
 18 19  2  0
 18 20  1  0
 20 21  2  0
 21 22  1  0
 22 23  1  0
 23 24  2  0
 24 25  1  0
 25 26  2  0
 26 27  1  0
 26 28  1  0
 28 29  2  0
 22 30  2  0
 30 31  1  0
  9  5  1  0
 31 20  1  0
 29 23  1  0
  1 32  1  0
  1 33  1  0
  1 34  1  0
  2 35  1  0
  2 36  1  0
  4 37  1  0
  4 38  1  0
  5 39  1  0
  6 40  1  0
  6 41  1  0
  7 42  1  0
  7 43  1  0
  8 44  1  0
  8 45  1  0
 12 46  1  6
 13 47  1  0
 14 48  1  0
 14 49  1  0
 15 50  1  0
 16 51  1  0
 16 52  1  0
 16 53  1  0
 17 54  1  0
 17 55  1  0
 17 56  1  0
 21 57  1  0
 24 58  1  0
 25 59  1  0
 28 60  1  0
 29 61  1  0
 31 62  1  0
M  END
$$$$
