
     RDKit          3D

 55 58  0  0  0  0  0  0  0  0999 V2000
    7.6048    1.2660    0.5107 C   0  0  0  0  0  0  0  0  0  0  0  0
    6.4323    1.7926   -0.1872 N   0  0  0  0  0  0  0  0  0  0  0  0
    6.7004    2.8764   -1.1331 C   0  0  0  0  0  0  0  0  0  0  0  0
    5.3440    0.9429   -0.4258 C   0  0  0  0  0  0  0  0  0  0  0  0
    4.2860    1.3109   -1.2819 C   0  0  0  0  0  0  0  0  0  0  0  0
    3.1800    0.4790   -1.5093 C   0  0  0  0  0  0  0  0  0  0  0  0
    3.0909   -0.7467   -0.8547 C   0  0  0  0  0  0  0  0  0  0  0  0
    1.9464   -1.6542   -1.0899 C   0  0  0  0  0  0  0  0  0  0  0  0
    2.1951   -2.8016   -1.4533 O   0  0  0  0  0  0  0  0  0  0  0  0
    0.6476   -1.1688   -0.9033 N   0  0  0  0  0  0  0  0  0  0  0  0
    0.3460   -0.1152    0.0753 C   0  0  0  0  0  0  0  0  0  0  0  0
   -1.0499    0.5043   -0.1336 C   0  0  0  0  0  0  0  0  0  0  0  0
   -2.1557   -0.4695   -0.2453 N   0  0  0  0  0  0  0  0  0  0  0  0
   -2.4301   -1.1040    1.0585 C   0  0  0  0  0  0  0  0  0  0  0  0
   -3.7052   -1.8997    1.0108 C   0  0  0  0  0  0  0  0  0  0  0  0
   -3.6165   -3.2902    0.9863 N   0  0  0  0  0  0  0  0  0  0  0  0
   -4.8237   -3.8069    0.9389 C   0  0  0  0  0  0  0  0  0  0  0  0
   -6.1254   -2.6945    0.9309 S   0  0  0  0  0  0  0  0  0  0  0  0
   -5.0003   -1.4011    0.9925 C   0  0  0  0  0  0  0  0  0  0  0  0
   -5.4751   -0.0231    1.0101 C   0  0  0  0  0  0  0  0  0  0  0  0
   -5.7100    0.6567   -0.1959 C   0  0  0  0  0  0  0  0  0  0  0  0
   -6.1431    1.9834   -0.1791 C   0  0  0  0  0  0  0  0  0  0  0  0
   -6.3390    2.6259    1.0427 C   0  0  0  0  0  0  0  0  0  0  0  0
   -6.7548    3.8995    1.0579 F   0  0  0  0  0  0  0  0  0  0  0  0
   -6.1116    1.9669    2.2468 C   0  0  0  0  0  0  0  0  0  0  0  0
   -5.6774    0.6400    2.2313 C   0  0  0  0  0  0  0  0  0  0  0  0
   -1.8074   -1.4540   -1.2971 C   0  0  0  0  0  0  0  0  0  0  0  0
   -0.4351   -2.1310   -1.1305 C   0  0  0  0  0  0  0  0  0  0  0  0
    4.1212   -1.1543   -0.0127 C   0  0  0  0  0  0  0  0  0  0  0  0
    5.2206   -0.3115    0.2043 C   0  0  0  0  0  0  0  0  0  0  0  0
    7.3465    0.9233    1.5189 H   0  0  0  0  0  0  0  0  0  0  0  0
    8.0625    0.4453   -0.0531 H   0  0  0  0  0  0  0  0  0  0  0  0
    8.3672    2.0422    0.6455 H   0  0  0  0  0  0  0  0  0  0  0  0
    6.8577    2.4863   -2.1447 H   0  0  0  0  0  0  0  0  0  0  0  0
    5.8832    3.6060   -1.1419 H   0  0  0  0  0  0  0  0  0  0  0  0
    7.5991    3.4370   -0.8515 H   0  0  0  0  0  0  0  0  0  0  0  0
    4.2939    2.2645   -1.8016 H   0  0  0  0  0  0  0  0  0  0  0  0
    2.3991    0.7944   -2.1969 H   0  0  0  0  0  0  0  0  0  0  0  0
    1.0922    0.6810    0.0381 H   0  0  0  0  0  0  0  0  0  0  0  0
    0.4227   -0.5691    1.0708 H   0  0  0  0  0  0  0  0  0  0  0  0
   -1.0314    1.0932   -1.0594 H   0  0  0  0  0  0  0  0  0  0  0  0
   -1.2582    1.2243    0.6669 H   0  0  0  0  0  0  0  0  0  0  0  0
   -2.5523   -0.3294    1.8278 H   0  0  0  0  0  0  0  0  0  0  0  0
   -1.6087   -1.7469    1.3940 H   0  0  0  0  0  0  0  0  0  0  0  0
   -4.9930   -4.8751    0.9084 H   0  0  0  0  0  0  0  0  0  0  0  0
   -5.5502    0.1532   -1.1516 H   0  0  0  0  0  0  0  0  0  0  0  0
   -6.3250    2.5172   -1.1085 H   0  0  0  0  0  0  0  0  0  0  0  0
   -6.2722    2.4884    3.1861 H   0  0  0  0  0  0  0  0  0  0  0  0
   -5.4994    0.1260    3.1754 H   0  0  0  0  0  0  0  0  0  0  0  0
   -1.8086   -0.9170   -2.2561 H   0  0  0  0  0  0  0  0  0  0  0  0
   -2.5863   -2.2179   -1.4011 H   0  0  0  0  0  0  0  0  0  0  0  0
   -0.4433   -2.8296   -0.2859 H   0  0  0  0  0  0  0  0  0  0  0  0
   -0.2129   -2.7145   -2.0313 H   0  0  0  0  0  0  0  0  0  0  0  0
    4.0758   -2.1244    0.4766 H   0  0  0  0  0  0  0  0  0  0  0  0
    5.9866   -0.6765    0.8822 H   0  0  0  0  0  0  0  0  0  0  0  0
  1  2  1  0
  2  3  1  0
  2  4  1  0
  4  5  2  0
  5  6  1  0
  6  7  2  0
  7  8  1  0
  8  9  2  0
  8 10  1  0
 10 11  1  0
 11 12  1  0
 12 13  1  0
 13 14  1  0
 14 15  1  0
 15 16  1  0
 16 17  2  0
 17 18  1  0
 18 19  1  0
 19 20  1  0
 20 21  2  0
 21 22  1  0
 22 23  2  0
 23 24  1  0
 23 25  1  0
 25 26  2  0
 13 27  1  0
 27 28  1  0
  7 29  1  0
 29 30  2  0
 30  4  1  0
 28 10  1  0
 19 15  2  0
 26 20  1  0
  1 31  1  0
  1 32  1  0
  1 33  1  0
  3 34  1  0
  3 35  1  0
  3 36  1  0
  5 37  1  0
  6 38  1  0
 11 39  1  0
 11 40  1  0
 12 41  1  0
 12 42  1  0
 14 43  1  0
 14 44  1  0
 17 45  1  0
 21 46  1  0
 22 47  1  0
 25 48  1  0
 26 49  1  0
 27 50  1  0
 27 51  1  0
 28 52  1  0
 28 53  1  0
 29 54  1  0
 30 55  1  0
M  END
$$$$
