
     RDKit          3D

 39 42  0  0  0  0  0  0  0  0999 V2000
   -0.7535    0.8182   -2.0773 O   0  0  0  0  0  0  0  0  0  0  0  0
   -0.4509   -0.3163   -1.7068 C   0  0  0  0  0  0  0  0  0  0  0  0
    0.7753   -1.0336   -2.2444 C   0  0  0  0  0  0  0  0  0  0  0  0
    1.9773   -0.8979   -1.3436 C   0  0  0  0  0  0  0  0  0  0  0  0
    2.5455   -2.0228   -0.7337 C   0  0  0  0  0  0  0  0  0  0  0  0
    3.6647   -1.8904    0.0921 C   0  0  0  0  0  0  0  0  0  0  0  0
    4.2430   -0.6331    0.3225 C   0  0  0  0  0  0  0  0  0  0  0  0
    5.3701   -0.4842    1.1467 C   0  0  0  0  0  0  0  0  0  0  0  0
    5.9363    0.7740    1.3607 C   0  0  0  0  0  0  0  0  0  0  0  0
    5.3835    1.8957    0.7544 C   0  0  0  0  0  0  0  0  0  0  0  0
    4.2615    1.7651   -0.0651 C   0  0  0  0  0  0  0  0  0  0  0  0
    3.6801    0.5082   -0.2914 C   0  0  0  0  0  0  0  0  0  0  0  0
    2.5530    0.3613   -1.1176 C   0  0  0  0  0  0  0  0  0  0  0  0
   -1.1665   -1.0694   -0.7888 N   0  0  0  0  0  0  0  0  0  0  0  0
   -2.3387   -0.6219   -0.2158 C   0  0  0  0  0  0  0  0  0  0  0  0
   -3.1648   -1.2648    0.6776 C   0  0  0  0  0  0  0  0  0  0  0  0
   -4.2600   -0.3984    0.9583 C   0  0  0  0  0  0  0  0  0  0  0  0
   -5.4086   -0.5033    1.7679 C   0  0  0  0  0  0  0  0  0  0  0  0
   -6.3041    0.5719    1.8253 C   0  0  0  0  0  0  0  0  0  0  0  0
   -6.0582    1.7289    1.0964 C   0  0  0  0  0  0  0  0  0  0  0  0
   -6.9282    2.7475    1.1739 F   0  0  0  0  0  0  0  0  0  0  0  0
   -4.9342    1.8636    0.2833 C   0  0  0  0  0  0  0  0  0  0  0  0
   -4.0530    0.7765    0.2317 C   0  0  0  0  0  0  0  0  0  0  0  0
   -2.8866    0.6091   -0.4755 N   0  0  0  0  0  0  0  0  0  0  0  0
    0.5259   -2.0909   -2.4032 H   0  0  0  0  0  0  0  0  0  0  0  0
    1.0103   -0.6296   -3.2374 H   0  0  0  0  0  0  0  0  0  0  0  0
    2.1316   -3.0141   -0.8973 H   0  0  0  0  0  0  0  0  0  0  0  0
    4.0879   -2.7795    0.5535 H   0  0  0  0  0  0  0  0  0  0  0  0
    5.8188   -1.3527    1.6269 H   0  0  0  0  0  0  0  0  0  0  0  0
    6.8100    0.8744    1.9999 H   0  0  0  0  0  0  0  0  0  0  0  0
    5.8243    2.8744    0.9174 H   0  0  0  0  0  0  0  0  0  0  0  0
    3.8422    2.6548   -0.5283 H   0  0  0  0  0  0  0  0  0  0  0  0
    2.1171    1.2408   -1.5926 H   0  0  0  0  0  0  0  0  0  0  0  0
   -0.8155   -1.9749   -0.5019 H   0  0  0  0  0  0  0  0  0  0  0  0
   -3.0145   -2.2533    1.0850 H   0  0  0  0  0  0  0  0  0  0  0  0
   -5.5984   -1.4053    2.3421 H   0  0  0  0  0  0  0  0  0  0  0  0
   -7.1937    0.5112    2.4440 H   0  0  0  0  0  0  0  0  0  0  0  0
   -4.7612    2.7748   -0.2745 H   0  0  0  0  0  0  0  0  0  0  0  0
   -2.4677    1.2858   -1.1025 H   0  0  0  0  0  0  0  0  0  0  0  0
  1  2  2  0
  2  3  1  0
  3  4  1  0
  4  5  2  0
  5  6  1  0
  6  7  2  0
  7  8  1  0
  8  9  2  0
  9 10  1  0
 10 11  2  0
 11 12  1  0
 12 13  2  0
  2 14  1  0
 14 15  1  0
 15 16  2  0
 16 17  1  0
 17 18  2  0
 18 19  1  0
 19 20  2  0
 20 21  1  0
 20 22  1  0
 22 23  2  0
 23 24  1  0
 13  4  1  0
 24 15  1  0
 12  7  1  0
 23 17  1  0
  3 25  1  0
  3 26  1  0
  5 27  1  0
  6 28  1  0
  8 29  1  0
  9 30  1  0
 10 31  1  0
 11 32  1  0
 13 33  1  0
 14 34  1  0
 16 35  1  0
 18 36  1  0
 19 37  1  0
 22 38  1  0
 24 39  1  0
M  END
$$$$
