
     RDKit          3D

 63 66  0  0  0  0  0  0  0  0999 V2000
   -3.8963   -0.0141   -5.6823 C   0  0  0  0  0  0  0  0  0  0  0  0
   -3.6225   -0.4368   -4.3516 O   0  0  0  0  0  0  0  0  0  0  0  0
   -4.5230   -0.0773   -3.3811 C   0  0  0  0  0  0  0  0  0  0  0  0
   -5.6215    0.7630   -3.5718 C   0  0  0  0  0  0  0  0  0  0  0  0
   -6.4788    1.0471   -2.5041 C   0  0  0  0  0  0  0  0  0  0  0  0
   -6.2313    0.5042   -1.2455 C   0  0  0  0  0  0  0  0  0  0  0  0
   -7.1345    0.8074   -0.2623 O   0  0  0  0  0  0  0  0  0  0  0  0
   -5.1095   -0.3029   -1.0229 C   0  0  0  0  0  0  0  0  0  0  0  0
   -4.8621   -0.8362    0.3340 C   0  0  0  0  0  0  0  0  0  0  0  0
   -5.8477   -1.0685    1.0416 O   0  0  0  0  0  0  0  0  0  0  0  0
   -3.5061   -1.0426    0.9016 C   0  0  0  0  0  0  0  0  0  0  0  0
   -3.3379   -2.0527    1.8564 C   0  0  0  0  0  0  0  0  0  0  0  0
   -2.0899   -2.2600    2.4495 C   0  0  0  0  0  0  0  0  0  0  0  0
   -0.9971   -1.4621    2.0899 C   0  0  0  0  0  0  0  0  0  0  0  0
    0.3128   -1.7209    2.7498 C   0  0  0  0  0  0  0  0  0  0  0  0
    0.3519   -2.2606    3.8504 O   0  0  0  0  0  0  0  0  0  0  0  0
    1.4380   -1.3653    2.0398 N   0  0  0  0  0  0  0  0  0  0  0  0
    2.7750   -1.7354    2.4944 C   0  0  2  0  0  0  0  0  0  0  0  0
    3.1838   -1.0248    3.8028 C   0  0  0  0  0  0  0  0  0  0  0  0
    4.4181   -0.1357    3.6677 C   0  0  0  0  0  0  0  0  0  0  0  0
    5.5680   -0.7420    2.9939 N   0  0  0  0  0  0  0  0  0  0  0  0
    5.2226   -1.8311    2.0654 C   0  0  0  0  0  0  0  0  0  0  0  0
    3.8573   -1.6181    1.3859 C   0  0  0  0  0  0  0  0  0  0  0  0
    3.8678   -0.3396    0.6644 N   0  0  0  0  0  0  0  0  0  0  0  0
    2.9475    0.0185   -0.2885 C   0  0  0  0  0  0  0  0  0  0  0  0
    1.9991   -0.7026   -0.5866 O   0  0  0  0  0  0  0  0  0  0  0  0
    3.1406    1.3436   -0.8718 C   0  0  0  0  0  0  0  0  0  0  0  0
    4.2075    2.2786   -0.7096 C   0  0  0  0  0  0  0  0  0  0  0  0
    3.9246    3.3914   -1.4712 C   0  0  0  0  0  0  0  0  0  0  0  0
    2.7353    3.1664   -2.1109 N   0  0  0  0  0  0  0  0  0  0  0  0
    2.1050    4.0875   -3.0284 C   0  0  0  0  0  0  0  0  0  0  0  0
    2.2479    1.9417   -1.7503 C   0  0  0  0  0  0  0  0  0  0  0  0
   -1.1706   -0.4288    1.1578 C   0  0  0  0  0  0  0  0  0  0  0  0
   -2.4240   -0.2159    0.5704 C   0  0  0  0  0  0  0  0  0  0  0  0
   -4.2784   -0.6051   -2.1030 C   0  0  0  0  0  0  0  0  0  0  0  0
   -3.2237   -1.4221   -1.9370 F   0  0  0  0  0  0  0  0  0  0  0  0
   -4.8717   -0.3737   -6.0201 H   0  0  0  0  0  0  0  0  0  0  0  0
   -3.1353   -0.4484   -6.3357 H   0  0  0  0  0  0  0  0  0  0  0  0
   -3.8288    1.0751   -5.7676 H   0  0  0  0  0  0  0  0  0  0  0  0
   -5.8463    1.2075   -4.5365 H   0  0  0  0  0  0  0  0  0  0  0  0
   -7.3398    1.6928   -2.6521 H   0  0  0  0  0  0  0  0  0  0  0  0
   -6.9810    0.1860    0.4892 H   0  0  0  0  0  0  0  0  0  0  0  0
   -4.1765   -2.6804    2.1464 H   0  0  0  0  0  0  0  0  0  0  0  0
   -1.9699   -3.0503    3.1895 H   0  0  0  0  0  0  0  0  0  0  0  0
    1.3312   -1.2056    1.0370 H   0  0  0  0  0  0  0  0  0  0  0  0
    2.7010   -2.8045    2.7420 H   0  0  0  0  0  0  0  0  0  0  0  0
    3.3845   -1.7873    4.5686 H   0  0  0  0  0  0  0  0  0  0  0  0
    2.3604   -0.4088    4.1914 H   0  0  0  0  0  0  0  0  0  0  0  0
    4.7328    0.2006    4.6628 H   0  0  0  0  0  0  0  0  0  0  0  0
    4.1393    0.7777    3.1318 H   0  0  0  0  0  0  0  0  0  0  0  0
    6.2321   -1.0934    3.6858 H   0  0  0  0  0  0  0  0  0  0  0  0
    5.2209   -2.7831    2.6100 H   0  0  0  0  0  0  0  0  0  0  0  0
    6.0121   -1.8961    1.3091 H   0  0  0  0  0  0  0  0  0  0  0  0
    3.6805   -2.4017    0.6392 H   0  0  0  0  0  0  0  0  0  0  0  0
    4.5340    0.3469    0.9888 H   0  0  0  0  0  0  0  0  0  0  0  0
    5.0984    2.1553   -0.1099 H   0  0  0  0  0  0  0  0  0  0  0  0
    4.4793    4.3097   -1.6193 H   0  0  0  0  0  0  0  0  0  0  0  0
    1.1990    3.6336   -3.4371 H   0  0  0  0  0  0  0  0  0  0  0  0
    1.8511    4.9973   -2.4807 H   0  0  0  0  0  0  0  0  0  0  0  0
    2.8122    4.3057   -3.8340 H   0  0  0  0  0  0  0  0  0  0  0  0
    1.3120    1.5670   -2.1473 H   0  0  0  0  0  0  0  0  0  0  0  0
   -0.3461    0.2253    0.8885 H   0  0  0  0  0  0  0  0  0  0  0  0
   -2.5331    0.6045   -0.1339 H   0  0  0  0  0  0  0  0  0  0  0  0
  1  2  1  0
  2  3  1  0
  3  4  2  0
  4  5  1  0
  5  6  2  0
  6  7  1  0
  6  8  1  0
  8  9  1  0
  9 10  2  0
  9 11  1  0
 11 12  2  0
 12 13  1  0
 13 14  2  0
 14 15  1  0
 15 16  2  0
 15 17  1  0
 17 18  1  0
 18 19  1  0
 19 20  1  0
 20 21  1  0
 21 22  1  0
 22 23  1  0
 23 24  1  0
 24 25  1  0
 25 26  2  0
 25 27  1  0
 27 28  1  0
 28 29  2  0
 29 30  1  0
 30 31  1  0
 30 32  1  0
 14 33  1  0
 33 34  2  0
  8 35  2  0
 35 36  1  0
 35  3  1  0
 34 11  1  0
 23 18  1  0
 32 27  2  0
  1 37  1  0
  1 38  1  0
  1 39  1  0
  4 40  1  0
  5 41  1  0
  7 42  1  0
 12 43  1  0
 13 44  1  0
 17 45  1  0
 18 46  1  1
 19 47  1  0
 19 48  1  0
 20 49  1  0
 20 50  1  0
 21 51  1  0
 22 52  1  0
 22 53  1  0
 23 54  1  0
 24 55  1  0
 28 56  1  0
 29 57  1  0
 31 58  1  0
 31 59  1  0
 31 60  1  0
 32 61  1  0
 33 62  1  0
 34 63  1  0
M  END
$$$$
