
     RDKit          3D

 67 70  0  0  0  0  0  0  0  0999 V2000
   -7.0576    1.1141   -2.9984 C   0  0  0  0  0  0  0  0  0  0  0  0
   -6.2881    0.4386   -2.0110 O   0  0  0  0  0  0  0  0  0  0  0  0
   -5.5448   -0.6426   -2.4141 C   0  0  0  0  0  0  0  0  0  0  0  0
   -5.4648   -1.0939   -3.7376 C   0  0  0  0  0  0  0  0  0  0  0  0
   -4.6847   -2.2035   -4.0623 C   0  0  0  0  0  0  0  0  0  0  0  0
   -3.9565   -2.8453   -3.0716 C   0  0  0  0  0  0  0  0  0  0  0  0
   -3.2294   -3.9407   -3.4542 O   0  0  0  0  0  0  0  0  0  0  0  0
   -3.9789   -2.3747   -1.7511 C   0  0  0  0  0  0  0  0  0  0  0  0
   -3.0734   -3.0437   -0.7898 C   0  0  0  0  0  0  0  0  0  0  0  0
   -3.0910   -4.2727   -0.7432 O   0  0  0  0  0  0  0  0  0  0  0  0
   -2.0824   -2.2840    0.0175 C   0  0  0  0  0  0  0  0  0  0  0  0
   -1.5945   -1.0350   -0.3909 C   0  0  0  0  0  0  0  0  0  0  0  0
   -0.6381   -0.3658    0.3819 C   0  0  0  0  0  0  0  0  0  0  0  0
   -0.1606   -0.9466    1.5644 C   0  0  0  0  0  0  0  0  0  0  0  0
    0.8902   -0.2941    2.3921 C   0  0  0  0  0  0  0  0  0  0  0  0
    1.6438   -0.9793    3.0700 O   0  0  0  0  0  0  0  0  0  0  0  0
    0.9534    1.0859    2.3325 N   0  0  0  0  0  0  0  0  0  0  0  0
    1.8606    1.8339    3.2276 C   0  0  2  0  0  0  0  0  0  0  0  0
    1.5760    3.3364    3.1288 C   0  0  0  0  0  0  0  0  0  0  0  0
    2.3963    4.1276    4.1513 C   0  0  0  0  0  0  0  0  0  0  0  0
    3.6326    3.4625    4.5537 N   0  0  0  0  0  0  0  0  0  0  0  0
    4.2513    2.7418    3.4384 C   0  0  0  0  0  0  0  0  0  0  0  0
    3.3744    1.5675    2.9358 C   0  0  0  0  0  0  0  0  0  0  0  0
    3.5741    1.3068    1.5037 N   0  0  0  0  0  0  0  0  0  0  0  0
    4.7913    0.9489    0.9729 C   0  0  0  0  0  0  0  0  0  0  0  0
    5.8655    1.1083    1.5389 O   0  0  0  0  0  0  0  0  0  0  0  0
    4.7477    0.3698   -0.3924 C   0  0  0  0  0  0  0  0  0  0  0  0
    5.7663    0.6907   -1.2840 C   0  0  0  0  0  0  0  0  0  0  0  0
    5.6964    0.1574   -2.5551 C   0  0  0  0  0  0  0  0  0  0  0  0
    4.7017   -0.6571   -2.9738 N   0  0  0  0  0  0  0  0  0  0  0  0
    3.7398   -0.9892   -2.0816 C   0  0  0  0  0  0  0  0  0  0  0  0
    2.6583   -1.9178   -2.5470 C   0  0  0  0  0  0  0  0  0  0  0  0
    3.7265   -0.4986   -0.7828 C   0  0  0  0  0  0  0  0  0  0  0  0
   -0.6292   -2.2069    1.9563 C   0  0  0  0  0  0  0  0  0  0  0  0
   -1.5862   -2.8730    1.1865 C   0  0  0  0  0  0  0  0  0  0  0  0
   -4.8260   -1.3047   -1.3936 C   0  0  0  0  0  0  0  0  0  0  0  0
   -4.9873   -0.8522    0.0351 C   0  0  0  0  0  0  0  0  0  0  0  0
   -6.4126    1.5599   -3.7626 H   0  0  0  0  0  0  0  0  0  0  0  0
   -7.8016    0.4461   -3.4447 H   0  0  0  0  0  0  0  0  0  0  0  0
   -7.5960    1.9283   -2.5035 H   0  0  0  0  0  0  0  0  0  0  0  0
   -6.0100   -0.6118   -4.5428 H   0  0  0  0  0  0  0  0  0  0  0  0
   -4.6463   -2.5655   -5.0860 H   0  0  0  0  0  0  0  0  0  0  0  0
   -3.0424   -4.4711   -2.6483 H   0  0  0  0  0  0  0  0  0  0  0  0
   -1.9291   -0.5781   -1.3197 H   0  0  0  0  0  0  0  0  0  0  0  0
   -0.2519    0.5861    0.0263 H   0  0  0  0  0  0  0  0  0  0  0  0
    0.1078    1.5624    2.0464 H   0  0  0  0  0  0  0  0  0  0  0  0
    1.6364    1.5008    4.2503 H   0  0  0  0  0  0  0  0  0  0  0  0
    0.5095    3.5407    3.2824 H   0  0  0  0  0  0  0  0  0  0  0  0
    1.8138    3.6860    2.1150 H   0  0  0  0  0  0  0  0  0  0  0  0
    1.7940    4.2923    5.0517 H   0  0  0  0  0  0  0  0  0  0  0  0
    2.6193    5.1186    3.7386 H   0  0  0  0  0  0  0  0  0  0  0  0
    4.2909    4.1470    4.9268 H   0  0  0  0  0  0  0  0  0  0  0  0
    4.4784    3.4449    2.6277 H   0  0  0  0  0  0  0  0  0  0  0  0
    5.2132    2.3419    3.7773 H   0  0  0  0  0  0  0  0  0  0  0  0
    3.6751    0.6514    3.4597 H   0  0  0  0  0  0  0  0  0  0  0  0
    2.7307    1.0628    1.0043 H   0  0  0  0  0  0  0  0  0  0  0  0
    6.5855    1.3397   -0.9950 H   0  0  0  0  0  0  0  0  0  0  0  0
    6.4577    0.3770   -3.2982 H   0  0  0  0  0  0  0  0  0  0  0  0
    1.6929   -1.4013   -2.5385 H   0  0  0  0  0  0  0  0  0  0  0  0
    2.6021   -2.7959   -1.8957 H   0  0  0  0  0  0  0  0  0  0  0  0
    2.8533   -2.2627   -3.5676 H   0  0  0  0  0  0  0  0  0  0  0  0
    2.9589   -0.8180   -0.0879 H   0  0  0  0  0  0  0  0  0  0  0  0
   -0.2426   -2.6792    2.8588 H   0  0  0  0  0  0  0  0  0  0  0  0
   -1.9357   -3.8567    1.4991 H   0  0  0  0  0  0  0  0  0  0  0  0
   -6.0303   -0.5926    0.2466 H   0  0  0  0  0  0  0  0  0  0  0  0
   -4.3604    0.0222    0.2304 H   0  0  0  0  0  0  0  0  0  0  0  0
   -4.7334   -1.6439    0.7457 H   0  0  0  0  0  0  0  0  0  0  0  0
  1  2  1  0
  2  3  1  0
  3  4  2  0
  4  5  1  0
  5  6  2  0
  6  7  1  0
  6  8  1  0
  8  9  1  0
  9 10  2  0
  9 11  1  0
 11 12  2  0
 12 13  1  0
 13 14  2  0
 14 15  1  0
 15 16  2  0
 15 17  1  0
 17 18  1  0
 18 19  1  0
 19 20  1  0
 20 21  1  0
 21 22  1  0
 22 23  1  0
 23 24  1  0
 24 25  1  0
 25 26  2  0
 25 27  1  0
 27 28  2  0
 28 29  1  0
 29 30  2  0
 30 31  1  0
 31 32  1  0
 31 33  2  0
 14 34  1  0
 34 35  2  0
  8 36  2  0
 36 37  1  0
 36  3  1  0
 35 11  1  0
 23 18  1  0
 33 27  1  0
  1 38  1  0
  1 39  1  0
  1 40  1  0
  4 41  1  0
  5 42  1  0
  7 43  1  0
 12 44  1  0
 13 45  1  0
 17 46  1  0
 18 47  1  1
 19 48  1  0
 19 49  1  0
 20 50  1  0
 20 51  1  0
 21 52  1  0
 22 53  1  0
 22 54  1  0
 23 55  1  0
 24 56  1  0
 28 57  1  0
 29 58  1  0
 32 59  1  0
 32 60  1  0
 32 61  1  0
 33 62  1  0
 34 63  1  0
 35 64  1  0
 37 65  1  0
 37 66  1  0
 37 67  1  0
M  END
$$$$
