
     RDKit          3D

 70 75  0  0  0  0  0  0  0  0999 V2000
   -9.3875   -0.8071   -0.7650 C   0  0  0  0  0  0  0  0  0  0  0  0
   -8.9897    0.3882   -1.5058 N   0  0  0  0  0  0  0  0  0  0  0  0
   -7.6511    0.2321   -2.1163 C   0  0  0  0  0  0  0  0  0  0  0  0
   -6.4586    0.2439   -1.1306 C   0  0  0  0  0  0  0  0  0  0  0  0
   -6.5257    1.4007   -0.2258 N   0  0  0  0  0  0  0  0  0  0  0  0
   -5.4484    1.4857    0.6597 C   0  0  0  0  0  0  0  0  0  0  0  0
   -5.6024    2.1682    1.8076 N   0  0  0  0  0  0  0  0  0  0  0  0
   -4.5428    2.2541    2.6361 C   0  0  0  0  0  0  0  0  0  0  0  0
   -3.3255    1.6823    2.3742 C   0  0  0  0  0  0  0  0  0  0  0  0
   -2.3096    1.8464    3.2655 O   0  0  0  0  0  0  0  0  0  0  0  0
   -3.2432    0.9882    1.1817 C   0  0  0  0  0  0  0  0  0  0  0  0
   -2.0264    0.2962    0.7381 C   0  0  0  0  0  0  0  0  0  0  0  0
   -1.3605    0.7026   -0.4289 C   0  0  0  0  0  0  0  0  0  0  0  0
   -0.1817    0.0738   -0.8408 C   0  0  0  0  0  0  0  0  0  0  0  0
    0.3566   -0.9853   -0.0976 C   0  0  0  0  0  0  0  0  0  0  0  0
    1.6264   -1.6769   -0.5532 C   0  0  0  0  0  0  0  0  0  0  0  0
    2.6348   -1.8180    0.5096 N   0  0  0  0  0  0  0  0  0  0  0  0
    3.1683   -0.5477    1.0144 C   0  0  0  0  0  0  0  0  0  0  0  0
    4.0489    0.1974    0.0153 C   0  0  0  0  0  0  0  0  0  0  0  0
    5.1330   -0.6777   -0.6290 C   0  0  0  0  0  0  0  0  0  0  0  0
    6.4338   -0.5598    0.0253 N   0  0  0  0  0  0  0  0  0  0  0  0
    6.8107   -1.0405    1.2473 C   0  0  0  0  0  0  0  0  0  0  0  0
    6.0454   -1.7248    2.0676 O   0  0  0  0  0  0  0  0  0  0  0  0
    8.0439   -0.7557    1.5629 N   0  0  0  0  0  0  0  0  0  0  0  0
    8.5153   -0.0409    0.4932 C   0  0  0  0  0  0  0  0  0  0  0  0
    9.7855    0.5231    0.2969 C   0  0  0  0  0  0  0  0  0  0  0  0
   10.0391    1.2252   -0.8862 C   0  0  0  0  0  0  0  0  0  0  0  0
    9.0468    1.3638   -1.8566 C   0  0  0  0  0  0  0  0  0  0  0  0
    7.7733    0.8071   -1.6806 C   0  0  0  0  0  0  0  0  0  0  0  0
    7.5349    0.1050   -0.4899 C   0  0  0  0  0  0  0  0  0  0  0  0
    4.6872   -2.1211   -0.9141 C   0  0  0  0  0  0  0  0  0  0  0  0
    3.7315   -2.7110    0.1231 C   0  0  0  0  0  0  0  0  0  0  0  0
   -0.3211   -1.4158    1.0515 C   0  0  0  0  0  0  0  0  0  0  0  0
   -1.4948   -0.7802    1.4664 C   0  0  0  0  0  0  0  0  0  0  0  0
   -4.2864    0.8991    0.3239 N   0  0  0  0  0  0  0  0  0  0  0  0
   -7.8316    1.6408    0.4036 C   0  0  0  0  0  0  0  0  0  0  0  0
   -8.9718    1.5875   -0.6396 C   0  0  0  0  0  0  0  0  0  0  0  0
  -10.3887   -0.6757   -0.3396 H   0  0  0  0  0  0  0  0  0  0  0  0
   -8.7046   -1.0630    0.0504 H   0  0  0  0  0  0  0  0  0  0  0  0
   -9.4473   -1.6682   -1.4403 H   0  0  0  0  0  0  0  0  0  0  0  0
   -7.6190   -0.6855   -2.7176 H   0  0  0  0  0  0  0  0  0  0  0  0
   -7.5162    1.0553   -2.8314 H   0  0  0  0  0  0  0  0  0  0  0  0
   -5.5418    0.2751   -1.7330 H   0  0  0  0  0  0  0  0  0  0  0  0
   -6.4510   -0.6898   -0.5532 H   0  0  0  0  0  0  0  0  0  0  0  0
   -4.7094    2.8230    3.5457 H   0  0  0  0  0  0  0  0  0  0  0  0
   -1.4895    1.4868    2.8806 H   0  0  0  0  0  0  0  0  0  0  0  0
   -1.7647    1.5195   -1.0259 H   0  0  0  0  0  0  0  0  0  0  0  0
    0.3104    0.4199   -1.7477 H   0  0  0  0  0  0  0  0  0  0  0  0
    1.3198   -2.6720   -0.9026 H   0  0  0  0  0  0  0  0  0  0  0  0
    2.0408   -1.1607   -1.4276 H   0  0  0  0  0  0  0  0  0  0  0  0
    2.3555    0.1133    1.3396 H   0  0  0  0  0  0  0  0  0  0  0  0
    3.7359   -0.7457    1.9307 H   0  0  0  0  0  0  0  0  0  0  0  0
    4.4932    1.0734    0.5045 H   0  0  0  0  0  0  0  0  0  0  0  0
    3.4067    0.5954   -0.7817 H   0  0  0  0  0  0  0  0  0  0  0  0
    5.3024   -0.2407   -1.6218 H   0  0  0  0  0  0  0  0  0  0  0  0
    6.6529   -1.8745    2.8159 H   0  0  0  0  0  0  0  0  0  0  0  0
   10.5500    0.4134    1.0579 H   0  0  0  0  0  0  0  0  0  0  0  0
   11.0193    1.6680   -1.0463 H   0  0  0  0  0  0  0  0  0  0  0  0
    9.2651    1.9173   -2.7687 H   0  0  0  0  0  0  0  0  0  0  0  0
    7.0137    0.9272   -2.4453 H   0  0  0  0  0  0  0  0  0  0  0  0
    5.5548   -2.7821   -1.0313 H   0  0  0  0  0  0  0  0  0  0  0  0
    4.1725   -2.1285   -1.8846 H   0  0  0  0  0  0  0  0  0  0  0  0
    4.2843   -2.9995    1.0222 H   0  0  0  0  0  0  0  0  0  0  0  0
    3.3260   -3.6568   -0.2590 H   0  0  0  0  0  0  0  0  0  0  0  0
    0.0720   -2.2493    1.6323 H   0  0  0  0  0  0  0  0  0  0  0  0
   -1.9980   -1.1403    2.3620 H   0  0  0  0  0  0  0  0  0  0  0  0
   -7.8620    2.6358    0.8661 H   0  0  0  0  0  0  0  0  0  0  0  0
   -8.0186    0.8971    1.1895 H   0  0  0  0  0  0  0  0  0  0  0  0
   -8.8833    2.4663   -1.2934 H   0  0  0  0  0  0  0  0  0  0  0  0
   -9.9382    1.6963   -0.1317 H   0  0  0  0  0  0  0  0  0  0  0  0
  1  2  1  0
  2  3  1  0
  3  4  1  0
  4  5  1  0
  5  6  1  0
  6  7  2  0
  7  8  1  0
  8  9  2  0
  9 10  1  0
  9 11  1  0
 11 12  1  0
 12 13  2  0
 13 14  1  0
 14 15  2  0
 15 16  1  0
 16 17  1  0
 17 18  1  0
 18 19  1  0
 19 20  1  0
 20 21  1  0
 21 22  1  0
 22 23  1  0
 22 24  2  0
 24 25  1  0
 25 26  2  0
 26 27  1  0
 27 28  2  0
 28 29  1  0
 29 30  2  0
 20 31  1  0
 31 32  1  0
 15 33  1  0
 33 34  2  0
 11 35  2  0
  5 36  1  0
 36 37  1  0
 37  2  1  0
 35  6  1  0
 34 12  1  0
 32 17  1  0
 30 21  1  0
 30 25  1  0
  1 38  1  0
  1 39  1  0
  1 40  1  0
  3 41  1  0
  3 42  1  0
  4 43  1  0
  4 44  1  0
  8 45  1  0
 10 46  1  0
 13 47  1  0
 14 48  1  0
 16 49  1  0
 16 50  1  0
 18 51  1  0
 18 52  1  0
 19 53  1  0
 19 54  1  0
 20 55  1  0
 23 56  1  0
 26 57  1  0
 27 58  1  0
 28 59  1  0
 29 60  1  0
 31 61  1  0
 31 62  1  0
 32 63  1  0
 32 64  1  0
 33 65  1  0
 34 66  1  0
 36 67  1  0
 36 68  1  0
 37 69  1  0
 37 70  1  0
M  END
$$$$
