
     RDKit          3D

 73 77  0  0  0  0  0  0  0  0999 V2000
  -11.2579   -3.6642   -0.0147 C   0  0  0  0  0  0  0  0  0  0  0  0
  -10.8875   -2.3696   -0.4738 O   0  0  0  0  0  0  0  0  0  0  0  0
   -9.5615   -2.0455   -0.4167 C   0  0  0  0  0  0  0  0  0  0  0  0
   -8.5396   -2.8538    0.0660 C   0  0  0  0  0  0  0  0  0  0  0  0
   -7.2214   -2.3852    0.0588 C   0  0  0  0  0  0  0  0  0  0  0  0
   -6.9025   -1.1222   -0.4199 C   0  0  0  0  0  0  0  0  0  0  0  0
   -5.6174   -0.7153   -0.4087 N   0  0  0  0  0  0  0  0  0  0  0  0
   -5.3905    0.5388   -0.8902 C   0  0  0  0  0  0  0  0  0  0  0  0
   -3.9825    1.0224   -0.8919 C   0  0  0  0  0  0  0  0  0  0  0  0
   -3.6941    2.1468   -1.2842 O   0  0  0  0  0  0  0  0  0  0  0  0
   -3.0602    0.1095   -0.4214 N   0  0  0  0  0  0  0  0  0  0  0  0
   -1.6439    0.4416   -0.2438 C   0  0  0  0  0  0  0  0  0  0  0  0
   -0.9335    0.7175   -1.6009 C   0  0  0  0  0  0  0  0  0  0  0  0
    0.0368   -0.2717   -2.0969 N   0  0  0  0  0  0  0  0  0  0  0  0
   -0.5470   -1.6040   -2.2253 C   0  0  0  0  0  0  0  0  0  0  0  0
   -0.2589   -2.4455   -0.9884 C   0  0  0  0  0  0  0  0  0  0  0  0
   -1.0190   -2.0371    0.2716 C   0  0  0  0  0  0  0  0  0  0  0  0
   -0.9104   -0.5589    0.6929 C   0  0  1  0  0  0  0  0  0  0  0  0
    0.4862   -0.1838    0.8972 N   0  0  0  0  0  0  0  0  0  0  0  0
    1.1582   -0.4265    2.0730 C   0  0  0  0  0  0  0  0  0  0  0  0
    0.6153   -0.8369    3.0916 O   0  0  0  0  0  0  0  0  0  0  0  0
    2.6199   -0.1380    2.0708 C   0  0  0  0  0  0  0  0  0  0  0  0
    3.4083   -0.2728    0.9195 C   0  0  0  0  0  0  0  0  0  0  0  0
    4.7767    0.0183    0.9669 C   0  0  0  0  0  0  0  0  0  0  0  0
    5.3591    0.4525    2.1636 C   0  0  0  0  0  0  0  0  0  0  0  0
    6.8078    0.7469    2.2596 C   0  0  0  0  0  0  0  0  0  0  0  0
    7.4271    0.3674    3.2550 O   0  0  0  0  0  0  0  0  0  0  0  0
    7.5676    1.4331    1.1912 C   0  0  0  0  0  0  0  0  0  0  0  0
    8.9262    1.1415    1.0196 C   0  0  0  0  0  0  0  0  0  0  0  0
    9.6043    0.2548    1.8130 O   0  0  0  0  0  0  0  0  0  0  0  0
    9.6637    1.7568    0.0108 C   0  0  0  0  0  0  0  0  0  0  0  0
    9.0594    2.6987   -0.8258 C   0  0  0  0  0  0  0  0  0  0  0  0
    7.7151    3.0318   -0.6465 C   0  0  0  0  0  0  0  0  0  0  0  0
    7.0200    3.9485   -1.3887 O   0  0  0  0  0  0  0  0  0  0  0  0
    7.7308    4.6388   -2.4080 C   0  0  0  0  0  0  0  0  0  0  0  0
    6.9819    2.3968    0.3682 C   0  0  0  0  0  0  0  0  0  0  0  0
    5.6993    2.7519    0.5515 F   0  0  0  0  0  0  0  0  0  0  0  0
    4.5824    0.5476    3.3234 C   0  0  0  0  0  0  0  0  0  0  0  0
    3.2169    0.2550    3.2759 C   0  0  0  0  0  0  0  0  0  0  0  0
   -6.4026    1.3508   -1.3623 C   0  0  0  0  0  0  0  0  0  0  0  0
   -7.6953    0.9457   -1.3808 N   0  0  0  0  0  0  0  0  0  0  0  0
   -7.9461   -0.2926   -0.9080 C   0  0  0  0  0  0  0  0  0  0  0  0
   -9.2493   -0.7711   -0.8964 C   0  0  0  0  0  0  0  0  0  0  0  0
  -10.7760   -4.4469   -0.6094 H   0  0  0  0  0  0  0  0  0  0  0  0
  -12.3395   -3.7683   -0.1420 H   0  0  0  0  0  0  0  0  0  0  0  0
  -11.0351   -3.7832    1.0509 H   0  0  0  0  0  0  0  0  0  0  0  0
   -8.7270   -3.8497    0.4542 H   0  0  0  0  0  0  0  0  0  0  0  0
   -6.4266   -3.0228    0.4386 H   0  0  0  0  0  0  0  0  0  0  0  0
   -3.4473   -0.7521   -0.0456 H   0  0  0  0  0  0  0  0  0  0  0  0
   -1.6489    1.4078    0.2830 H   0  0  0  0  0  0  0  0  0  0  0  0
   -0.3707    1.6545   -1.4888 H   0  0  0  0  0  0  0  0  0  0  0  0
   -1.6667    0.9114   -2.3939 H   0  0  0  0  0  0  0  0  0  0  0  0
    0.3302    0.0413   -3.0245 H   0  0  0  0  0  0  0  0  0  0  0  0
   -0.0601   -2.0964   -3.0765 H   0  0  0  0  0  0  0  0  0  0  0  0
   -1.6175   -1.5770   -2.4599 H   0  0  0  0  0  0  0  0  0  0  0  0
   -0.5120   -3.4898   -1.2125 H   0  0  0  0  0  0  0  0  0  0  0  0
    0.8196   -2.4404   -0.7833 H   0  0  0  0  0  0  0  0  0  0  0  0
   -0.6448   -2.6618    1.0941 H   0  0  0  0  0  0  0  0  0  0  0  0
   -2.0715   -2.3182    0.1534 H   0  0  0  0  0  0  0  0  0  0  0  0
   -1.4078   -0.4907    1.6707 H   0  0  0  0  0  0  0  0  0  0  0  0
    0.9965    0.0608    0.0560 H   0  0  0  0  0  0  0  0  0  0  0  0
    2.9839   -0.6298   -0.0147 H   0  0  0  0  0  0  0  0  0  0  0  0
    5.3734   -0.1114    0.0677 H   0  0  0  0  0  0  0  0  0  0  0  0
    9.0439    0.0645    2.6005 H   0  0  0  0  0  0  0  0  0  0  0  0
   10.7150    1.5086   -0.1155 H   0  0  0  0  0  0  0  0  0  0  0  0
    9.6695    3.1592   -1.5968 H   0  0  0  0  0  0  0  0  0  0  0  0
    7.0397    5.3443   -2.8787 H   0  0  0  0  0  0  0  0  0  0  0  0
    8.0781    3.9468   -3.1819 H   0  0  0  0  0  0  0  0  0  0  0  0
    8.5620    5.2155   -1.9899 H   0  0  0  0  0  0  0  0  0  0  0  0
    5.0354    0.8501    4.2655 H   0  0  0  0  0  0  0  0  0  0  0  0
    2.6176    0.3372    4.1811 H   0  0  0  0  0  0  0  0  0  0  0  0
   -6.2101    2.3497   -1.7402 H   0  0  0  0  0  0  0  0  0  0  0  0
  -10.0454   -0.1321   -1.2731 H   0  0  0  0  0  0  0  0  0  0  0  0
  1  2  1  0
  2  3  1  0
  3  4  2  0
  4  5  1  0
  5  6  2  0
  6  7  1  0
  7  8  2  0
  8  9  1  0
  9 10  2  0
  9 11  1  0
 11 12  1  0
 12 13  1  0
 13 14  1  0
 14 15  1  0
 15 16  1  0
 16 17  1  0
 17 18  1  0
 18 19  1  0
 19 20  1  0
 20 21  2  0
 20 22  1  0
 22 23  2  0
 23 24  1  0
 24 25  2  0
 25 26  1  0
 26 27  2  0
 26 28  1  0
 28 29  2  0
 29 30  1  0
 29 31  1  0
 31 32  2  0
 32 33  1  0
 33 34  1  0
 34 35  1  0
 33 36  2  0
 36 37  1  0
 25 38  1  0
 38 39  2  0
  8 40  1  0
 40 41  2  0
 41 42  1  0
 42 43  2  0
 43  3  1  0
 42  6  1  0
 18 12  1  0
 39 22  1  0
 36 28  1  0
  1 44  1  0
  1 45  1  0
  1 46  1  0
  4 47  1  0
  5 48  1  0
 11 49  1  0
 12 50  1  0
 13 51  1  0
 13 52  1  0
 14 53  1  0
 15 54  1  0
 15 55  1  0
 16 56  1  0
 16 57  1  0
 17 58  1  0
 17 59  1  0
 18 60  1  1
 19 61  1  0
 23 62  1  0
 24 63  1  0
 30 64  1  0
 31 65  1  0
 32 66  1  0
 35 67  1  0
 35 68  1  0
 35 69  1  0
 38 70  1  0
 39 71  1  0
 40 72  1  0
 43 73  1  0
M  END
$$$$
