
     RDKit          3D

 66 70  0  0  0  0  0  0  0  0999 V2000
   -4.7877   -3.3093    2.0812 C   0  0  0  0  0  0  0  0  0  0  0  0
   -4.8886   -1.8129    2.1391 C   0  0  0  0  0  0  0  0  0  0  0  0
   -4.7397   -1.1711    3.1723 O   0  0  0  0  0  0  0  0  0  0  0  0
   -5.0835   -1.3324    0.8809 O   0  0  0  0  0  0  0  0  0  0  0  0
   -5.4794   -0.0726    0.8876 C   0  0  0  0  0  0  0  0  0  0  0  0
   -6.6487    0.3213    1.3351 N   0  0  0  0  0  0  0  0  0  0  0  0
   -6.6815    1.6724    1.1108 C   0  0  0  0  0  0  0  0  0  0  0  0
   -7.6830    2.5963    1.4378 C   0  0  0  0  0  0  0  0  0  0  0  0
   -7.4821    3.9306    1.0955 C   0  0  0  0  0  0  0  0  0  0  0  0
   -8.4264    4.8319    1.4009 F   0  0  0  0  0  0  0  0  0  0  0  0
   -6.3280    4.3554    0.4447 C   0  0  0  0  0  0  0  0  0  0  0  0
   -5.3183    3.4467    0.1097 C   0  0  0  0  0  0  0  0  0  0  0  0
   -5.5251    2.1035    0.4585 C   0  0  0  0  0  0  0  0  0  0  0  0
   -4.7776    0.9518    0.2999 N   0  0  0  0  0  0  0  0  0  0  0  0
   -3.4741    0.8637   -0.3484 C   0  0  0  0  0  0  0  0  0  0  0  0
   -2.3427    0.5995    0.6506 C   0  0  0  0  0  0  0  0  0  0  0  0
   -1.0709    0.2327   -0.1073 C   0  0  0  0  0  0  0  0  0  0  0  0
   -1.2097   -1.0236   -0.8573 N   0  0  0  0  0  0  0  0  0  0  0  0
   -0.2417   -1.1233   -1.9644 C   0  0  0  0  0  0  0  0  0  0  0  0
    1.2041   -1.0257   -1.5280 C   0  0  0  0  0  0  0  0  0  0  0  0
    1.7205   -1.8843   -0.5537 C   0  0  0  0  0  0  0  0  0  0  0  0
    3.0582   -1.7825   -0.1478 C   0  0  0  0  0  0  0  0  0  0  0  0
    3.9354   -0.8326   -0.6958 C   0  0  0  0  0  0  0  0  0  0  0  0
    5.2514   -0.7290   -0.2795 N   0  0  0  0  0  0  0  0  0  0  0  0
    5.6875   -1.2361    1.0346 C   0  0  0  0  0  0  0  0  0  0  0  0
    6.8662   -0.3974    1.5789 C   0  0  0  0  0  0  0  0  0  0  0  0
    8.0647   -0.4082    0.7140 N   0  0  0  0  0  0  0  0  0  0  0  0
    8.8971    0.7622    0.9745 C   0  0  0  0  0  0  0  0  0  0  0  0
    7.6970   -0.5185   -0.7136 C   0  0  0  0  0  0  0  0  0  0  0  0
    6.2726   -0.0407   -1.0848 C   0  0  0  0  0  0  0  0  0  0  0  0
    3.4022    0.0027   -1.6903 C   0  0  0  0  0  0  0  0  0  0  0  0
    2.0644   -0.0866   -2.1018 C   0  0  0  0  0  0  0  0  0  0  0  0
   -2.5766   -1.3255   -1.2930 C   0  0  0  0  0  0  0  0  0  0  0  0
   -3.4387   -0.0920   -1.5551 C   0  0  0  0  0  0  0  0  0  0  0  0
   -3.8915   -3.5992    1.5280 H   0  0  0  0  0  0  0  0  0  0  0  0
   -4.7195   -3.7079    3.0978 H   0  0  0  0  0  0  0  0  0  0  0  0
   -5.6853   -3.7220    1.6126 H   0  0  0  0  0  0  0  0  0  0  0  0
   -8.5850    2.2807    1.9469 H   0  0  0  0  0  0  0  0  0  0  0  0
   -6.2194    5.4085    0.2001 H   0  0  0  0  0  0  0  0  0  0  0  0
   -4.4196    3.7839   -0.3949 H   0  0  0  0  0  0  0  0  0  0  0  0
   -3.2928    1.8607   -0.7690 H   0  0  0  0  0  0  0  0  0  0  0  0
   -2.1708    1.4965    1.2590 H   0  0  0  0  0  0  0  0  0  0  0  0
   -2.5957   -0.2035    1.3504 H   0  0  0  0  0  0  0  0  0  0  0  0
   -0.8186    1.0643   -0.7792 H   0  0  0  0  0  0  0  0  0  0  0  0
   -0.2529    0.1348    0.6143 H   0  0  0  0  0  0  0  0  0  0  0  0
   -0.4613   -0.3612   -2.7252 H   0  0  0  0  0  0  0  0  0  0  0  0
   -0.3475   -2.0968   -2.4622 H   0  0  0  0  0  0  0  0  0  0  0  0
    1.0802   -2.6341   -0.0943 H   0  0  0  0  0  0  0  0  0  0  0  0
    3.4067   -2.4857    0.6053 H   0  0  0  0  0  0  0  0  0  0  0  0
    5.9778   -2.2900    0.9448 H   0  0  0  0  0  0  0  0  0  0  0  0
    4.8773   -1.1676    1.7706 H   0  0  0  0  0  0  0  0  0  0  0  0
    6.5046    0.6315    1.7143 H   0  0  0  0  0  0  0  0  0  0  0  0
    7.1446   -0.7741    2.5702 H   0  0  0  0  0  0  0  0  0  0  0  0
    9.8340    0.6987    0.4086 H   0  0  0  0  0  0  0  0  0  0  0  0
    8.3924    1.6976    0.7041 H   0  0  0  0  0  0  0  0  0  0  0  0
    9.1714    0.8091    2.0342 H   0  0  0  0  0  0  0  0  0  0  0  0
    8.4302   -0.0107   -1.3523 H   0  0  0  0  0  0  0  0  0  0  0  0
    7.7706   -1.5829   -0.9736 H   0  0  0  0  0  0  0  0  0  0  0  0
    6.1944    1.0430   -0.9336 H   0  0  0  0  0  0  0  0  0  0  0  0
    6.1269   -0.2510   -2.1512 H   0  0  0  0  0  0  0  0  0  0  0  0
    4.0160    0.7694   -2.1550 H   0  0  0  0  0  0  0  0  0  0  0  0
    1.7072    0.5946   -2.8711 H   0  0  0  0  0  0  0  0  0  0  0  0
   -2.5849   -1.9722   -2.1791 H   0  0  0  0  0  0  0  0  0  0  0  0
   -3.0434   -1.9266   -0.5045 H   0  0  0  0  0  0  0  0  0  0  0  0
   -3.0164    0.4443   -2.4155 H   0  0  0  0  0  0  0  0  0  0  0  0
   -4.4474   -0.3983   -1.8575 H   0  0  0  0  0  0  0  0  0  0  0  0
  1  2  1  0
  2  3  2  0
  2  4  1  0
  4  5  1  0
  5  6  2  0
  6  7  1  0
  7  8  2  0
  8  9  1  0
  9 10  1  0
  9 11  2  0
 11 12  1  0
 12 13  2  0
 13 14  1  0
 14 15  1  0
 15 16  1  0
 16 17  1  0
 17 18  1  0
 18 19  1  0
 19 20  1  0
 20 21  2  0
 21 22  1  0
 22 23  2  0
 23 24  1  0
 24 25  1  0
 25 26  1  0
 26 27  1  0
 27 28  1  0
 27 29  1  0
 29 30  1  0
 23 31  1  0
 31 32  2  0
 18 33  1  0
 33 34  1  0
 14  5  1  0
 34 15  1  0
 13  7  1  0
 32 20  1  0
 30 24  1  0
  1 35  1  0
  1 36  1  0
  1 37  1  0
  8 38  1  0
 11 39  1  0
 12 40  1  0
 15 41  1  0
 16 42  1  0
 16 43  1  0
 17 44  1  0
 17 45  1  0
 19 46  1  0
 19 47  1  0
 21 48  1  0
 22 49  1  0
 25 50  1  0
 25 51  1  0
 26 52  1  0
 26 53  1  0
 28 54  1  0
 28 55  1  0
 28 56  1  0
 29 57  1  0
 29 58  1  0
 30 59  1  0
 30 60  1  0
 31 61  1  0
 32 62  1  0
 33 63  1  0
 33 64  1  0
 34 65  1  0
 34 66  1  0
M  END
$$$$
