
     RDKit          3D

 64 68  0  0  0  0  0  0  0  0999 V2000
   -6.2170    3.7679   -1.2893 C   0  0  0  0  0  0  0  0  0  0  0  0
   -5.2705    2.8071   -0.8338 O   0  0  0  0  0  0  0  0  0  0  0  0
   -5.7260    1.5565   -0.8143 C   0  0  0  0  0  0  0  0  0  0  0  0
   -6.9325    1.1821   -1.1670 N   0  0  0  0  0  0  0  0  0  0  0  0
   -6.9543   -0.1750   -0.9826 C   0  0  0  0  0  0  0  0  0  0  0  0
   -8.0061   -1.0730   -1.2091 C   0  0  0  0  0  0  0  0  0  0  0  0
   -7.7852   -2.4215   -0.9442 C   0  0  0  0  0  0  0  0  0  0  0  0
   -8.7765   -3.2993   -1.1536 F   0  0  0  0  0  0  0  0  0  0  0  0
   -6.5631   -2.8840   -0.4682 C   0  0  0  0  0  0  0  0  0  0  0  0
   -5.5030   -2.0005   -0.2359 C   0  0  0  0  0  0  0  0  0  0  0  0
   -5.7274   -0.6426   -0.5038 C   0  0  0  0  0  0  0  0  0  0  0  0
   -4.9521    0.4946   -0.4050 N   0  0  0  0  0  0  0  0  0  0  0  0
   -3.5731    0.6090    0.0538 C   0  0  0  0  0  0  0  0  0  0  0  0
   -2.5744   -0.1318   -0.8428 C   0  0  0  0  0  0  0  0  0  0  0  0
   -1.1856   -0.0366   -0.2165 C   0  0  0  0  0  0  0  0  0  0  0  0
   -1.1041   -0.6686    1.1084 N   0  0  0  0  0  0  0  0  0  0  0  0
   -0.1030   -0.0206    1.9726 C   0  0  0  0  0  0  0  0  0  0  0  0
    1.3028   -0.0882    1.4157 C   0  0  0  0  0  0  0  0  0  0  0  0
    1.9883    1.0731    1.0473 C   0  0  0  0  0  0  0  0  0  0  0  0
    3.2850    1.0014    0.5186 C   0  0  0  0  0  0  0  0  0  0  0  0
    3.9474   -0.2238    0.3530 C   0  0  0  0  0  0  0  0  0  0  0  0
    5.2380   -0.3408   -0.1867 N   0  0  0  0  0  0  0  0  0  0  0  0
    5.8113    0.8263   -0.8864 C   0  0  0  0  0  0  0  0  0  0  0  0
    7.1261    0.4464   -1.6097 C   0  0  0  0  0  0  0  0  0  0  0  0
    8.1510   -0.2043   -0.7631 N   0  0  0  0  0  0  0  0  0  0  0  0
    8.7591    0.7391    0.1720 C   0  0  0  0  0  0  0  0  0  0  0  0
    7.5226   -1.3436   -0.0575 C   0  0  0  0  0  0  0  0  0  0  0  0
    6.2082   -1.0267    0.6990 C   0  0  0  0  0  0  0  0  0  0  0  0
    3.2386   -1.3802    0.7192 C   0  0  0  0  0  0  0  0  0  0  0  0
    1.9424   -1.3191    1.2443 C   0  0  0  0  0  0  0  0  0  0  0  0
   -2.3921   -0.8436    1.7830 C   0  0  0  0  0  0  0  0  0  0  0  0
   -3.3926    0.2850    1.5472 C   0  0  0  0  0  0  0  0  0  0  0  0
   -6.5203    3.5618   -2.3219 H   0  0  0  0  0  0  0  0  0  0  0  0
   -7.0912    3.8013   -0.6292 H   0  0  0  0  0  0  0  0  0  0  0  0
   -5.7370    4.7511   -1.2666 H   0  0  0  0  0  0  0  0  0  0  0  0
   -8.9628   -0.7274   -1.5798 H   0  0  0  0  0  0  0  0  0  0  0  0
   -6.4388   -3.9468   -0.2786 H   0  0  0  0  0  0  0  0  0  0  0  0
   -4.5535   -2.3729    0.1282 H   0  0  0  0  0  0  0  0  0  0  0  0
   -3.3221    1.6748   -0.0430 H   0  0  0  0  0  0  0  0  0  0  0  0
   -2.5637    0.3221   -1.8416 H   0  0  0  0  0  0  0  0  0  0  0  0
   -2.8470   -1.1830   -0.9875 H   0  0  0  0  0  0  0  0  0  0  0  0
   -0.4593   -0.5122   -0.8843 H   0  0  0  0  0  0  0  0  0  0  0  0
   -0.9218    1.0275   -0.1605 H   0  0  0  0  0  0  0  0  0  0  0  0
   -0.3867    1.0218    2.1712 H   0  0  0  0  0  0  0  0  0  0  0  0
   -0.0716   -0.5189    2.9512 H   0  0  0  0  0  0  0  0  0  0  0  0
    1.5192    2.0482    1.1586 H   0  0  0  0  0  0  0  0  0  0  0  0
    3.7652    1.9378    0.2523 H   0  0  0  0  0  0  0  0  0  0  0  0
    6.0063    1.6398   -0.1770 H   0  0  0  0  0  0  0  0  0  0  0  0
    5.1081    1.1947   -1.6438 H   0  0  0  0  0  0  0  0  0  0  0  0
    7.5496    1.3368   -2.0914 H   0  0  0  0  0  0  0  0  0  0  0  0
    6.8834   -0.2446   -2.4286 H   0  0  0  0  0  0  0  0  0  0  0  0
    8.0445    1.1793    0.8744 H   0  0  0  0  0  0  0  0  0  0  0  0
    9.5445    0.2432    0.7536 H   0  0  0  0  0  0  0  0  0  0  0  0
    9.2454    1.5554   -0.3739 H   0  0  0  0  0  0  0  0  0  0  0  0
    8.2416   -1.7974    0.6359 H   0  0  0  0  0  0  0  0  0  0  0  0
    7.3089   -2.1174   -0.8072 H   0  0  0  0  0  0  0  0  0  0  0  0
    5.8132   -1.9778    1.0742 H   0  0  0  0  0  0  0  0  0  0  0  0
    6.4207   -0.3956    1.5713 H   0  0  0  0  0  0  0  0  0  0  0  0
    3.6811   -2.3606    0.5617 H   0  0  0  0  0  0  0  0  0  0  0  0
    1.4251   -2.2421    1.4977 H   0  0  0  0  0  0  0  0  0  0  0  0
   -2.8251   -1.7836    1.4237 H   0  0  0  0  0  0  0  0  0  0  0  0
   -2.2605   -0.9978    2.8612 H   0  0  0  0  0  0  0  0  0  0  0  0
   -4.3468    0.0321    2.0247 H   0  0  0  0  0  0  0  0  0  0  0  0
   -3.0310    1.1858    2.0612 H   0  0  0  0  0  0  0  0  0  0  0  0
  1  2  1  0
  2  3  1  0
  3  4  2  0
  4  5  1  0
  5  6  2  0
  6  7  1  0
  7  8  1  0
  7  9  2  0
  9 10  1  0
 10 11  2  0
 11 12  1  0
 12 13  1  0
 13 14  1  0
 14 15  1  0
 15 16  1  0
 16 17  1  0
 17 18  1  0
 18 19  2  0
 19 20  1  0
 20 21  2  0
 21 22  1  0
 22 23  1  0
 23 24  1  0
 24 25  1  0
 25 26  1  0
 25 27  1  0
 27 28  1  0
 21 29  1  0
 29 30  2  0
 16 31  1  0
 31 32  1  0
 12  3  1  0
 32 13  1  0
 11  5  1  0
 30 18  1  0
 28 22  1  0
  1 33  1  0
  1 34  1  0
  1 35  1  0
  6 36  1  0
  9 37  1  0
 10 38  1  0
 13 39  1  0
 14 40  1  0
 14 41  1  0
 15 42  1  0
 15 43  1  0
 17 44  1  0
 17 45  1  0
 19 46  1  0
 20 47  1  0
 23 48  1  0
 23 49  1  0
 24 50  1  0
 24 51  1  0
 26 52  1  0
 26 53  1  0
 26 54  1  0
 27 55  1  0
 27 56  1  0
 28 57  1  0
 28 58  1  0
 29 59  1  0
 30 60  1  0
 31 61  1  0
 31 62  1  0
 32 63  1  0
 32 64  1  0
M  END
$$$$
