
     RDKit          3D

 42 45  0  0  0  0  0  0  0  0999 V2000
   -2.9522   -3.1609   -1.4854 O   0  0  0  0  0  0  0  0  0  0  0  0
   -3.1573   -2.1290   -0.8454 C   0  0  0  0  0  0  0  0  0  0  0  0
   -4.3736   -2.0119    0.0590 C   0  0  0  0  0  0  0  0  0  0  0  0
   -4.2661   -0.9688    1.1638 C   0  0  0  0  0  0  0  0  0  0  0  0
   -4.5285    0.4586    0.6805 C   0  0  0  0  0  0  0  0  0  0  0  0
   -4.0017    0.7660   -0.7184 C   0  0  0  0  0  0  0  0  0  0  0  0
   -2.5674    0.3502   -0.9044 C   0  0  0  0  0  0  0  0  0  0  0  0
   -1.5758    1.3402   -1.0206 C   0  0  0  0  0  0  0  0  0  0  0  0
   -0.2410    0.9889   -1.2282 C   0  0  0  0  0  0  0  0  0  0  0  0
    0.7554    1.9982   -1.2951 N   0  0  0  0  0  0  0  0  0  0  0  0
    1.4633    2.5048    0.1554 S   0  0  0  0  0  0  0  0  0  0  0  0
    2.1713    3.7299   -0.1505 O   0  0  0  0  0  0  0  0  0  0  0  0
    0.4771    2.4584    1.2132 O   0  0  0  0  0  0  0  0  0  0  0  0
    2.6817    1.2484    0.4478 C   0  0  0  0  0  0  0  0  0  0  0  0
    2.4597    0.2801    1.4487 C   0  0  0  0  0  0  0  0  0  0  0  0
    3.4175   -0.7091    1.6874 C   0  0  0  0  0  0  0  0  0  0  0  0
    4.5652   -0.6880    0.9222 C   0  0  0  0  0  0  0  0  0  0  0  0
    4.7794    0.2677   -0.0457 C   0  0  0  0  0  0  0  0  0  0  0  0
    3.8591    1.2578   -0.3091 C   0  0  0  0  0  0  0  0  0  0  0  0
    5.9720    0.1056   -0.6781 O   0  0  0  0  0  0  0  0  0  0  0  0
    6.4901   -1.0539    0.0075 C   0  0  0  0  0  0  0  0  0  0  0  0
    5.5970   -1.5684    1.0174 O   0  0  0  0  0  0  0  0  0  0  0  0
    0.1285   -0.3490   -1.3176 C   0  0  0  0  0  0  0  0  0  0  0  0
   -0.8443   -1.3423   -1.2028 C   0  0  0  0  0  0  0  0  0  0  0  0
   -2.1885   -1.0026   -0.9820 C   0  0  0  0  0  0  0  0  0  0  0  0
   -5.2623   -1.8506   -0.5605 H   0  0  0  0  0  0  0  0  0  0  0  0
   -4.4837   -2.9910    0.5426 H   0  0  0  0  0  0  0  0  0  0  0  0
   -4.9911   -1.2004    1.9538 H   0  0  0  0  0  0  0  0  0  0  0  0
   -3.2768   -1.0217    1.6357 H   0  0  0  0  0  0  0  0  0  0  0  0
   -4.0918    1.1566    1.4059 H   0  0  0  0  0  0  0  0  0  0  0  0
   -5.6095    0.6466    0.6869 H   0  0  0  0  0  0  0  0  0  0  0  0
   -4.6177    0.2769   -1.4836 H   0  0  0  0  0  0  0  0  0  0  0  0
   -4.1155    1.8410   -0.9077 H   0  0  0  0  0  0  0  0  0  0  0  0
   -1.8460    2.3908   -0.9350 H   0  0  0  0  0  0  0  0  0  0  0  0
    0.5838    2.7938   -1.9094 H   0  0  0  0  0  0  0  0  0  0  0  0
    1.5444    0.2934    2.0378 H   0  0  0  0  0  0  0  0  0  0  0  0
    3.2680   -1.4663    2.4494 H   0  0  0  0  0  0  0  0  0  0  0  0
    4.0468    2.0069   -1.0707 H   0  0  0  0  0  0  0  0  0  0  0  0
    6.6765   -1.8428   -0.7302 H   0  0  0  0  0  0  0  0  0  0  0  0
    7.4403   -0.7849    0.4832 H   0  0  0  0  0  0  0  0  0  0  0  0
    1.1641   -0.6309   -1.4872 H   0  0  0  0  0  0  0  0  0  0  0  0
   -0.5504   -2.3882   -1.2802 H   0  0  0  0  0  0  0  0  0  0  0  0
  1  2  2  0
  2  3  1  0
  3  4  1  0
  4  5  1  0
  5  6  1  0
  6  7  1  0
  7  8  2  0
  8  9  1  0
  9 10  1  0
 10 11  1  0
 11 12  2  0
 11 13  2  0
 11 14  1  0
 14 15  2  0
 15 16  1  0
 16 17  2  0
 17 18  1  0
 18 19  2  0
 18 20  1  0
 20 21  1  0
 21 22  1  0
  9 23  2  0
 23 24  1  0
 24 25  2  0
 25  2  1  0
 25  7  1  0
 19 14  1  0
 22 17  1  0
  3 26  1  0
  3 27  1  0
  4 28  1  0
  4 29  1  0
  5 30  1  0
  5 31  1  0
  6 32  1  0
  6 33  1  0
  8 34  1  0
 10 35  1  0
 15 36  1  0
 16 37  1  0
 19 38  1  0
 21 39  1  0
 21 40  1  0
 23 41  1  0
 24 42  1  0
M  END
$$$$
