
     RDKit          3D

 37 37  0  0  0  0  0  0  0  0999 V2000
    4.1246   -0.8748    1.1528 C   0  0  0  0  0  0  0  0  0  0  0  0
    3.7999    0.3819    0.3627 C   0  0  0  0  0  0  0  0  0  0  0  0
    2.4227    0.7964    0.5325 N   0  0  0  0  0  0  0  0  0  0  0  0
    1.4042    0.1535   -0.1385 C   0  0  0  0  0  0  0  0  0  0  0  0
    1.6275   -0.7721   -0.9178 O   0  0  0  0  0  0  0  0  0  0  0  0
    0.1266    0.6579    0.1362 N   0  0  0  0  0  0  0  0  0  0  0  0
   -0.1015    2.0135    0.6594 C   0  0  0  0  0  0  0  0  0  0  0  0
    0.2728    3.1055   -0.3352 C   0  0  0  0  0  0  0  0  0  0  0  0
   -1.0187   -0.1470   -0.1802 C   0  0  0  0  0  0  0  0  0  0  0  0
   -2.0658    0.4480   -0.9119 C   0  0  0  0  0  0  0  0  0  0  0  0
   -3.1298   -0.3064   -1.4291 C   0  0  0  0  0  0  0  0  0  0  0  0
   -4.2088    0.3530   -2.2512 C   0  0  0  0  0  0  0  0  0  0  0  0
   -3.9159    0.3614   -3.5795 F   0  0  0  0  0  0  0  0  0  0  0  0
   -5.4160   -0.2669   -2.1360 F   0  0  0  0  0  0  0  0  0  0  0  0
   -4.4245    1.6523   -1.9044 F   0  0  0  0  0  0  0  0  0  0  0  0
   -3.1322   -1.6891   -1.2289 C   0  0  0  0  0  0  0  0  0  0  0  0
   -2.1231   -2.2917   -0.4702 C   0  0  0  0  0  0  0  0  0  0  0  0
   -2.2784   -4.3802   -0.1907 I   0  0  0  0  0  0  0  0  0  0  0  0
   -1.0866   -1.5309    0.1142 C   0  0  0  0  0  0  0  0  0  0  0  0
   -0.2062   -2.2125    0.9970 N   0  0  0  0  0  0  0  0  0  0  0  0
    0.4374   -1.7063    2.1008 C   0  0  0  0  0  0  0  0  0  0  0  0
    0.3733   -0.5913    2.5991 O   0  0  0  0  0  0  0  0  0  0  0  0
    5.1806   -1.1360    1.0344 H   0  0  0  0  0  0  0  0  0  0  0  0
    3.5236   -1.7256    0.8167 H   0  0  0  0  0  0  0  0  0  0  0  0
    3.9244   -0.7274    2.2193 H   0  0  0  0  0  0  0  0  0  0  0  0
    3.9977    0.2207   -0.7023 H   0  0  0  0  0  0  0  0  0  0  0  0
    4.4268    1.2104    0.7070 H   0  0  0  0  0  0  0  0  0  0  0  0
    2.1617    1.0545    1.4745 H   0  0  0  0  0  0  0  0  0  0  0  0
    0.4841    2.1463    1.5749 H   0  0  0  0  0  0  0  0  0  0  0  0
   -1.1484    2.1274    0.9649 H   0  0  0  0  0  0  0  0  0  0  0  0
    0.0510    4.0906    0.0871 H   0  0  0  0  0  0  0  0  0  0  0  0
   -0.2819    3.0039   -1.2725 H   0  0  0  0  0  0  0  0  0  0  0  0
    1.3390    3.0784   -0.5800 H   0  0  0  0  0  0  0  0  0  0  0  0
   -2.0315    1.5090   -1.1506 H   0  0  0  0  0  0  0  0  0  0  0  0
   -3.9345   -2.2886   -1.6576 H   0  0  0  0  0  0  0  0  0  0  0  0
   -0.2203   -3.2233    0.9253 H   0  0  0  0  0  0  0  0  0  0  0  0
    1.0461   -2.4943    2.5777 H   0  0  0  0  0  0  0  0  0  0  0  0
  1  2  1  0
  2  3  1  0
  3  4  1  0
  4  5  2  0
  4  6  1  0
  6  7  1  0
  7  8  1  0
  6  9  1  0
  9 10  2  0
 10 11  1  0
 11 12  1  0
 12 13  1  0
 12 14  1  0
 12 15  1  0
 11 16  2  0
 16 17  1  0
 17 18  1  0
 17 19  2  0
 19 20  1  0
 20 21  1  0
 21 22  2  0
 19  9  1  0
  1 23  1  0
  1 24  1  0
  1 25  1  0
  2 26  1  0
  2 27  1  0
  3 28  1  0
  7 29  1  0
  7 30  1  0
  8 31  1  0
  8 32  1  0
  8 33  1  0
 10 34  1  0
 16 35  1  0
 20 36  1  0
 21 37  1  0
M  END
$$$$
