
     RDKit          3D

 74 80  0  0  0  0  0  0  0  0999 V2000
   12.1655   -1.4593    0.8426 C   0  0  0  0  0  0  0  0  0  0  0  0
   10.7199   -1.2781    0.9531 N   0  0  0  0  0  0  0  0  0  0  0  0
   10.3270    0.0799    0.5207 C   0  0  0  0  0  0  0  0  0  0  0  0
    8.7955    0.3039    0.5654 C   0  0  0  0  0  0  0  0  0  0  0  0
    8.0965   -0.7207   -0.2434 N   0  0  0  0  0  0  0  0  0  0  0  0
    6.7075   -0.5221   -0.3309 C   0  0  0  0  0  0  0  0  0  0  0  0
    6.2063    0.6613   -0.8665 C   0  0  0  0  0  0  0  0  0  0  0  0
    4.8401    0.8705   -0.9847 C   0  0  0  0  0  0  0  0  0  0  0  0
    4.3844    2.0312   -1.4964 N   0  0  0  0  0  0  0  0  0  0  0  0
    3.0377    2.1681   -1.5829 C   0  0  0  0  0  0  0  0  0  0  0  0
    2.1425    1.1867   -1.1752 C   0  0  0  0  0  0  0  0  0  0  0  0
    0.6804    1.3305   -1.2651 C   0  0  0  0  0  0  0  0  0  0  0  0
    0.0368    2.5627   -1.0468 C   0  0  0  0  0  0  0  0  0  0  0  0
   -1.3558    2.6840   -1.1402 C   0  0  0  0  0  0  0  0  0  0  0  0
   -2.1475    1.5737   -1.4564 C   0  0  0  0  0  0  0  0  0  0  0  0
   -3.6468    1.6975   -1.5740 C   0  0  0  0  0  0  0  0  0  0  0  0
   -4.3099    2.0974   -0.3201 N   0  0  0  0  0  0  0  0  0  0  0  0
   -5.6962    2.5278   -0.5678 C   0  0  0  0  0  0  0  0  0  0  0  0
   -6.7455    1.8524    0.3173 C   0  0  0  0  0  0  0  0  0  0  0  0
   -6.5701    0.3310    0.2520 C   0  0  0  0  0  0  0  0  0  0  0  0
   -7.5679   -0.3753    1.0424 N   0  0  0  0  0  0  0  0  0  0  0  0
   -7.7039   -0.3363    2.4024 C   0  0  0  0  0  0  0  0  0  0  0  0
   -6.9360    0.3608    3.2129 O   0  0  0  0  0  0  0  0  0  0  0  0
   -8.6860   -1.0716    2.8459 N   0  0  0  0  0  0  0  0  0  0  0  0
   -9.2338   -1.6250    1.7140 C   0  0  0  0  0  0  0  0  0  0  0  0
  -10.3224   -2.5027    1.5943 C   0  0  0  0  0  0  0  0  0  0  0  0
  -10.7067   -2.9352    0.3197 C   0  0  0  0  0  0  0  0  0  0  0  0
  -10.0202   -2.5025   -0.8161 C   0  0  0  0  0  0  0  0  0  0  0  0
   -8.9305   -1.6288   -0.7196 C   0  0  0  0  0  0  0  0  0  0  0  0
   -8.5586   -1.2068    0.5647 C   0  0  0  0  0  0  0  0  0  0  0  0
   -5.1290   -0.1038    0.5723 C   0  0  0  0  0  0  0  0  0  0  0  0
   -4.1982    1.0954    0.7486 C   0  0  0  0  0  0  0  0  0  0  0  0
   -1.5137    0.3492   -1.6655 C   0  0  0  0  0  0  0  0  0  0  0  0
   -2.2414   -0.7381   -1.9634 F   0  0  0  0  0  0  0  0  0  0  0  0
   -0.1291    0.2219   -1.5671 C   0  0  0  0  0  0  0  0  0  0  0  0
    2.6043    0.0145   -0.6718 N   0  0  0  0  0  0  0  0  0  0  0  0
    3.9491   -0.1341   -0.5739 C   0  0  0  0  0  0  0  0  0  0  0  0
    4.5304   -1.2803   -0.0703 C   0  0  0  0  0  0  0  0  0  0  0  0
    5.8643   -1.4983    0.0554 N   0  0  0  0  0  0  0  0  0  0  0  0
    8.4676   -2.0937    0.1688 C   0  0  0  0  0  0  0  0  0  0  0  0
   10.0036   -2.2746    0.1248 C   0  0  0  0  0  0  0  0  0  0  0  0
   12.5225   -1.3462   -0.1878 H   0  0  0  0  0  0  0  0  0  0  0  0
   12.4539   -2.4539    1.2010 H   0  0  0  0  0  0  0  0  0  0  0  0
   12.6930   -0.7328    1.4712 H   0  0  0  0  0  0  0  0  0  0  0  0
   10.7976    0.8220    1.1774 H   0  0  0  0  0  0  0  0  0  0  0  0
   10.6823    0.2710   -0.5012 H   0  0  0  0  0  0  0  0  0  0  0  0
    8.4509    0.2618    1.6087 H   0  0  0  0  0  0  0  0  0  0  0  0
    8.6011    1.3149    0.1891 H   0  0  0  0  0  0  0  0  0  0  0  0
    6.8789    1.4289   -1.2294 H   0  0  0  0  0  0  0  0  0  0  0  0
    2.7044    3.1064   -2.0131 H   0  0  0  0  0  0  0  0  0  0  0  0
    0.6086    3.4489   -0.7760 H   0  0  0  0  0  0  0  0  0  0  0  0
   -1.8263    3.6475   -0.9503 H   0  0  0  0  0  0  0  0  0  0  0  0
   -3.8240    2.4655   -2.3398 H   0  0  0  0  0  0  0  0  0  0  0  0
   -4.0878    0.7742   -1.9704 H   0  0  0  0  0  0  0  0  0  0  0  0
   -5.7480    3.6125   -0.4163 H   0  0  0  0  0  0  0  0  0  0  0  0
   -5.9850    2.3549   -1.6136 H   0  0  0  0  0  0  0  0  0  0  0  0
   -6.6589    2.2231    1.3458 H   0  0  0  0  0  0  0  0  0  0  0  0
   -7.7498    2.1323   -0.0242 H   0  0  0  0  0  0  0  0  0  0  0  0
   -6.7529    0.0408   -0.7912 H   0  0  0  0  0  0  0  0  0  0  0  0
   -7.3258    0.1402    4.0786 H   0  0  0  0  0  0  0  0  0  0  0  0
  -10.8521   -2.8349    2.4801 H   0  0  0  0  0  0  0  0  0  0  0  0
  -11.5483   -3.6150    0.2172 H   0  0  0  0  0  0  0  0  0  0  0  0
  -10.3373   -2.8515   -1.7973 H   0  0  0  0  0  0  0  0  0  0  0  0
   -8.4058   -1.3028   -1.6114 H   0  0  0  0  0  0  0  0  0  0  0  0
   -5.0770   -0.7229    1.4763 H   0  0  0  0  0  0  0  0  0  0  0  0
   -4.7606   -0.7426   -0.2411 H   0  0  0  0  0  0  0  0  0  0  0  0
   -3.1666    0.7447    0.8658 H   0  0  0  0  0  0  0  0  0  0  0  0
   -4.4254    1.5867    1.7038 H   0  0  0  0  0  0  0  0  0  0  0  0
    0.3153   -0.7576   -1.7312 H   0  0  0  0  0  0  0  0  0  0  0  0
    3.9026   -2.1022    0.2639 H   0  0  0  0  0  0  0  0  0  0  0  0
    8.0214   -2.8297   -0.5123 H   0  0  0  0  0  0  0  0  0  0  0  0
    8.1105   -2.3035    1.1871 H   0  0  0  0  0  0  0  0  0  0  0  0
   10.3385   -2.2099   -0.9186 H   0  0  0  0  0  0  0  0  0  0  0  0
   10.2396   -3.2837    0.4818 H   0  0  0  0  0  0  0  0  0  0  0  0
  1  2  1  0
  2  3  1  0
  3  4  1  0
  4  5  1  0
  5  6  1  0
  6  7  2  0
  7  8  1  0
  8  9  2  0
  9 10  1  0
 10 11  2  0
 11 12  1  0
 12 13  2  0
 13 14  1  0
 14 15  2  0
 15 16  1  0
 16 17  1  0
 17 18  1  0
 18 19  1  0
 19 20  1  0
 20 21  1  0
 21 22  1  0
 22 23  1  0
 22 24  2  0
 24 25  1  0
 25 26  2  0
 26 27  1  0
 27 28  2  0
 28 29  1  0
 29 30  2  0
 20 31  1  0
 31 32  1  0
 15 33  1  0
 33 34  1  0
 33 35  2  0
 11 36  1  0
 36 37  2  0
 37 38  1  0
 38 39  2  0
  5 40  1  0
 40 41  1  0
 41  2  1  0
 39  6  1  0
 37  8  1  0
 35 12  1  0
 32 17  1  0
 30 21  1  0
 30 25  1  0
  1 42  1  0
  1 43  1  0
  1 44  1  0
  3 45  1  0
  3 46  1  0
  4 47  1  0
  4 48  1  0
  7 49  1  0
 10 50  1  0
 13 51  1  0
 14 52  1  0
 16 53  1  0
 16 54  1  0
 18 55  1  0
 18 56  1  0
 19 57  1  0
 19 58  1  0
 20 59  1  0
 23 60  1  0
 26 61  1  0
 27 62  1  0
 28 63  1  0
 29 64  1  0
 31 65  1  0
 31 66  1  0
 32 67  1  0
 32 68  1  0
 35 69  1  0
 38 70  1  0
 40 71  1  0
 40 72  1  0
 41 73  1  0
 41 74  1  0
M  END
$$$$
