
     RDKit          3D

 39 42  0  0  0  0  0  0  0  0999 V2000
    1.4320    2.6685   -1.2067 O   0  0  0  0  0  0  0  0  0  0  0  0
    0.5839    2.0607   -0.5508 C   0  0  0  0  0  0  0  0  0  0  0  0
   -0.8351    2.5948   -0.4199 C   0  0  0  0  0  0  0  0  0  0  0  0
   -1.9177    1.5449   -0.5189 C   0  0  0  0  0  0  0  0  0  0  0  0
   -2.0890    0.8145   -1.6999 C   0  0  0  0  0  0  0  0  0  0  0  0
   -3.0783   -0.1667   -1.7875 C   0  0  0  0  0  0  0  0  0  0  0  0
   -3.9212   -0.4358   -0.6992 C   0  0  0  0  0  0  0  0  0  0  0  0
   -4.9188   -1.4208   -0.7749 C   0  0  0  0  0  0  0  0  0  0  0  0
   -5.7470   -1.6692    0.3186 C   0  0  0  0  0  0  0  0  0  0  0  0
   -6.9650   -2.8801    0.2100 Cl  0  0  0  0  0  0  0  0  0  0  0  0
   -5.5971   -0.9458    1.4976 C   0  0  0  0  0  0  0  0  0  0  0  0
   -4.6088    0.0365    1.5861 C   0  0  0  0  0  0  0  0  0  0  0  0
   -3.7628    0.3023    0.4968 C   0  0  0  0  0  0  0  0  0  0  0  0
   -2.7625    1.2862    0.5710 C   0  0  0  0  0  0  0  0  0  0  0  0
    0.8302    0.9053    0.1742 N   0  0  0  0  0  0  0  0  0  0  0  0
    2.0675    0.2961    0.2075 C   0  0  0  0  0  0  0  0  0  0  0  0
    2.4434   -0.8618    0.8499 C   0  0  0  0  0  0  0  0  0  0  0  0
    3.8264   -1.0769    0.5852 C   0  0  0  0  0  0  0  0  0  0  0  0
    4.7525   -2.0698    0.9592 C   0  0  0  0  0  0  0  0  0  0  0  0
    6.0754   -1.9758    0.5107 C   0  0  0  0  0  0  0  0  0  0  0  0
    6.4789   -0.9145   -0.2974 C   0  0  0  0  0  0  0  0  0  0  0  0
    5.5775    0.0828   -0.6818 C   0  0  0  0  0  0  0  0  0  0  0  0
    4.2595   -0.0266   -0.2245 C   0  0  0  0  0  0  0  0  0  0  0  0
    3.1735    0.7891   -0.4374 N   0  0  0  0  0  0  0  0  0  0  0  0
   -1.0014    3.3354   -1.2118 H   0  0  0  0  0  0  0  0  0  0  0  0
   -0.8969    3.1304    0.5350 H   0  0  0  0  0  0  0  0  0  0  0  0
   -1.4514    1.0008   -2.5630 H   0  0  0  0  0  0  0  0  0  0  0  0
   -3.1858   -0.7208   -2.7182 H   0  0  0  0  0  0  0  0  0  0  0  0
   -5.0522   -1.9957   -1.6882 H   0  0  0  0  0  0  0  0  0  0  0  0
   -6.2441   -1.1391    2.3491 H   0  0  0  0  0  0  0  0  0  0  0  0
   -4.5058    0.5946    2.5145 H   0  0  0  0  0  0  0  0  0  0  0  0
   -2.6438    1.8586    1.4900 H   0  0  0  0  0  0  0  0  0  0  0  0
    0.0687    0.4476    0.6630 H   0  0  0  0  0  0  0  0  0  0  0  0
    1.8035   -1.4958    1.4480 H   0  0  0  0  0  0  0  0  0  0  0  0
    4.4468   -2.9003    1.5881 H   0  0  0  0  0  0  0  0  0  0  0  0
    6.7940   -2.7399    0.7966 H   0  0  0  0  0  0  0  0  0  0  0  0
    7.5112   -0.8596   -0.6357 H   0  0  0  0  0  0  0  0  0  0  0  0
    5.8929    0.9085   -1.3113 H   0  0  0  0  0  0  0  0  0  0  0  0
    3.1667    1.6376   -0.9913 H   0  0  0  0  0  0  0  0  0  0  0  0
  1  2  2  0
  2  3  1  0
  3  4  1  0
  4  5  2  0
  5  6  1  0
  6  7  2  0
  7  8  1  0
  8  9  2  0
  9 10  1  0
  9 11  1  0
 11 12  2  0
 12 13  1  0
 13 14  2  0
  2 15  1  0
 15 16  1  0
 16 17  2  0
 17 18  1  0
 18 19  2  0
 19 20  1  0
 20 21  2  0
 21 22  1  0
 22 23  2  0
 23 24  1  0
 14  4  1  0
 24 16  1  0
 13  7  1  0
 23 18  1  0
  3 25  1  0
  3 26  1  0
  5 27  1  0
  6 28  1  0
  8 29  1  0
 11 30  1  0
 12 31  1  0
 14 32  1  0
 15 33  1  0
 17 34  1  0
 19 35  1  0
 20 36  1  0
 21 37  1  0
 22 38  1  0
 24 39  1  0
M  END
$$$$
