
     RDKit          3D

 41 44  0  0  0  0  0  0  0  0999 V2000
   -3.3774    1.7049    1.7860 C   0  0  0  0  0  0  0  0  0  0  0  0
   -3.1068    0.6122    0.8829 N   0  0  0  0  0  0  0  0  0  0  0  0
   -2.0272    0.4422    0.0422 C   0  0  0  0  0  0  0  0  0  0  0  0
   -0.8456    1.1406   -0.0172 N   0  0  0  0  0  0  0  0  0  0  0  0
   -0.2393    1.7958    1.0310 C   0  0  0  0  0  0  0  0  0  0  0  0
   -0.6682    1.8981    2.1772 O   0  0  0  0  0  0  0  0  0  0  0  0
    1.0865    2.4301    0.6366 C   0  0  0  0  0  0  0  0  0  0  0  0
    2.1693    1.4176    0.3559 C   0  0  0  0  0  0  0  0  0  0  0  0
    2.6089    0.5541    1.3657 C   0  0  0  0  0  0  0  0  0  0  0  0
    3.6036   -0.3903    1.1056 C   0  0  0  0  0  0  0  0  0  0  0  0
    4.1848   -0.4894   -0.1674 C   0  0  0  0  0  0  0  0  0  0  0  0
    5.1864   -1.4341   -0.4434 C   0  0  0  0  0  0  0  0  0  0  0  0
    5.7586   -1.5167   -1.7145 C   0  0  0  0  0  0  0  0  0  0  0  0
    5.3362   -0.6574   -2.7243 C   0  0  0  0  0  0  0  0  0  0  0  0
    4.3402    0.2859   -2.4660 C   0  0  0  0  0  0  0  0  0  0  0  0
    3.7545    0.3826   -1.1925 C   0  0  0  0  0  0  0  0  0  0  0  0
    2.7509    1.3273   -0.9170 C   0  0  0  0  0  0  0  0  0  0  0  0
   -2.2600   -0.5186   -0.8264 N   0  0  0  0  0  0  0  0  0  0  0  0
   -3.4607   -1.0705   -0.4698 C   0  0  0  0  0  0  0  0  0  0  0  0
   -4.1462   -2.1569   -1.0337 C   0  0  0  0  0  0  0  0  0  0  0  0
   -5.3767   -2.5359   -0.4845 C   0  0  0  0  0  0  0  0  0  0  0  0
   -5.9139   -1.8465    0.6022 C   0  0  0  0  0  0  0  0  0  0  0  0
   -5.2458   -0.7569    1.1732 C   0  0  0  0  0  0  0  0  0  0  0  0
   -4.0146   -0.3947    0.6100 C   0  0  0  0  0  0  0  0  0  0  0  0
   -3.0234    1.4310    2.7818 H   0  0  0  0  0  0  0  0  0  0  0  0
   -2.9039    2.6160    1.4147 H   0  0  0  0  0  0  0  0  0  0  0  0
   -4.4553    1.8874    1.8208 H   0  0  0  0  0  0  0  0  0  0  0  0
   -0.2582    0.8346   -0.7852 H   0  0  0  0  0  0  0  0  0  0  0  0
    1.4146    3.0946    1.4450 H   0  0  0  0  0  0  0  0  0  0  0  0
    0.9117    3.0730   -0.2355 H   0  0  0  0  0  0  0  0  0  0  0  0
    2.1784    0.6083    2.3647 H   0  0  0  0  0  0  0  0  0  0  0  0
    3.9241   -1.0492    1.9092 H   0  0  0  0  0  0  0  0  0  0  0  0
    5.5297   -2.1135    0.3329 H   0  0  0  0  0  0  0  0  0  0  0  0
    6.5340   -2.2519   -1.9135 H   0  0  0  0  0  0  0  0  0  0  0  0
    5.7809   -0.7204   -3.7139 H   0  0  0  0  0  0  0  0  0  0  0  0
    4.0239    0.9471   -3.2706 H   0  0  0  0  0  0  0  0  0  0  0  0
    2.4243    2.0013   -1.7080 H   0  0  0  0  0  0  0  0  0  0  0  0
   -3.7207   -2.6879   -1.8774 H   0  0  0  0  0  0  0  0  0  0  0  0
   -5.9165   -3.3774   -0.9105 H   0  0  0  0  0  0  0  0  0  0  0  0
   -6.8715   -2.1597    1.0142 H   0  0  0  0  0  0  0  0  0  0  0  0
   -5.6699   -0.2261    2.0194 H   0  0  0  0  0  0  0  0  0  0  0  0
  1  2  1  0
  2  3  1  0
  3  4  1  0
  4  5  1  0
  5  6  2  0
  5  7  1  0
  7  8  1  0
  8  9  2  0
  9 10  1  0
 10 11  2  0
 11 12  1  0
 12 13  2  0
 13 14  1  0
 14 15  2  0
 15 16  1  0
 16 17  2  0
  3 18  2  0
 18 19  1  0
 19 20  2  0
 20 21  1  0
 21 22  2  0
 22 23  1  0
 23 24  2  0
 24  2  1  0
 17  8  1  0
 24 19  1  0
 16 11  1  0
  1 25  1  0
  1 26  1  0
  1 27  1  0
  4 28  1  0
  7 29  1  0
  7 30  1  0
  9 31  1  0
 10 32  1  0
 12 33  1  0
 13 34  1  0
 14 35  1  0
 15 36  1  0
 17 37  1  0
 20 38  1  0
 21 39  1  0
 22 40  1  0
 23 41  1  0
M  END
$$$$
