
     RDKit          3D

 56 59  0  0  0  0  0  0  0  0999 V2000
    9.1165    1.6752   -1.6647 C   0  0  0  0  0  0  0  0  0  0  0  0
    7.6819    1.6299   -1.5318 N   0  0  0  0  0  0  0  0  0  0  0  0
    6.9528    0.5508   -1.9816 C   0  0  0  0  0  0  0  0  0  0  0  0
    7.4602   -0.3825   -2.5985 O   0  0  0  0  0  0  0  0  0  0  0  0
    5.4917    0.5326   -1.6848 C   0  0  0  0  0  0  0  0  0  0  0  0
    4.7313   -0.5476   -2.1510 C   0  0  0  0  0  0  0  0  0  0  0  0
    3.3584   -0.6221   -1.8842 C   0  0  0  0  0  0  0  0  0  0  0  0
    2.7120    0.3831   -1.1582 C   0  0  0  0  0  0  0  0  0  0  0  0
    1.3469    0.3102   -0.8320 N   0  0  0  0  0  0  0  0  0  0  0  0
    0.7248   -0.6573   -0.1064 C   0  0  0  0  0  0  0  0  0  0  0  0
   -0.4783   -0.4444    0.3725 N   0  0  0  0  0  0  0  0  0  0  0  0
   -0.9206   -1.5102    1.1503 C   0  0  0  0  0  0  0  0  0  0  0  0
   -0.0340   -2.5773    1.2287 C   0  0  0  0  0  0  0  0  0  0  0  0
    1.3734   -2.1909    0.3148 S   0  0  0  0  0  0  0  0  0  0  0  0
   -0.1109   -3.8326    1.8924 C   0  0  0  0  0  0  0  0  0  0  0  0
   -1.0659   -4.1565    2.7748 C   0  0  0  0  0  0  0  0  0  0  0  0
   -2.1377   -3.4459    3.2694 N   0  0  0  0  0  0  0  0  0  0  0  0
   -2.2576   -1.9834    3.2302 C   0  0  0  0  0  0  0  0  0  0  0  0
   -2.2882   -1.4463    1.7898 C   0  0  0  0  0  0  0  0  0  0  0  0
   -2.8162   -0.0080    1.8425 C   0  0  0  0  0  0  0  0  0  0  0  0
   -2.5946    0.7104    2.8242 O   0  0  0  0  0  0  0  0  0  0  0  0
   -3.5628    0.4594    0.7644 N   0  0  0  0  0  0  0  0  0  0  0  0
   -3.8045   -0.3008   -0.4687 C   0  0  0  0  0  0  0  0  0  0  0  0
   -4.4310    0.5436   -1.5938 C   0  0  0  0  0  0  0  0  0  0  0  0
   -5.6398    1.2323   -1.1269 N   0  0  0  0  0  0  0  0  0  0  0  0
   -6.2659    2.0105   -2.1885 C   0  0  0  0  0  0  0  0  0  0  0  0
   -5.3922    2.0403    0.0832 C   0  0  0  0  0  0  0  0  0  0  0  0
   -4.0152    1.8486    0.7560 C   0  0  0  0  0  0  0  0  0  0  0  0
    3.4748    1.4619   -0.6966 C   0  0  0  0  0  0  0  0  0  0  0  0
    4.8447    1.5309   -0.9584 C   0  0  0  0  0  0  0  0  0  0  0  0
    5.5203    2.5855   -0.4747 F   0  0  0  0  0  0  0  0  0  0  0  0
    9.5584    1.0940   -0.8507 H   0  0  0  0  0  0  0  0  0  0  0  0
    9.4267    1.2534   -2.6249 H   0  0  0  0  0  0  0  0  0  0  0  0
    9.4405    2.7160   -1.5919 H   0  0  0  0  0  0  0  0  0  0  0  0
    7.2332    2.3173   -0.9351 H   0  0  0  0  0  0  0  0  0  0  0  0
    5.2044   -1.3426   -2.7249 H   0  0  0  0  0  0  0  0  0  0  0  0
    2.7967   -1.4692   -2.2722 H   0  0  0  0  0  0  0  0  0  0  0  0
    0.9097    1.2165   -0.6982 H   0  0  0  0  0  0  0  0  0  0  0  0
    0.6514   -4.5784    1.6741 H   0  0  0  0  0  0  0  0  0  0  0  0
   -1.0332   -5.1576    3.2056 H   0  0  0  0  0  0  0  0  0  0  0  0
   -2.5161   -3.8476    4.1280 H   0  0  0  0  0  0  0  0  0  0  0  0
   -1.4430   -1.5348    3.8168 H   0  0  0  0  0  0  0  0  0  0  0  0
   -3.1949   -1.7253    3.7417 H   0  0  0  0  0  0  0  0  0  0  0  0
   -2.9776   -2.0683    1.2087 H   0  0  0  0  0  0  0  0  0  0  0  0
   -2.8647   -0.7316   -0.8220 H   0  0  0  0  0  0  0  0  0  0  0  0
   -4.4760   -1.1278   -0.2090 H   0  0  0  0  0  0  0  0  0  0  0  0
   -4.6782   -0.1225   -2.4275 H   0  0  0  0  0  0  0  0  0  0  0  0
   -3.6936    1.2701   -1.9614 H   0  0  0  0  0  0  0  0  0  0  0  0
   -6.5498    1.3589   -3.0229 H   0  0  0  0  0  0  0  0  0  0  0  0
   -5.6041    2.7970   -2.5720 H   0  0  0  0  0  0  0  0  0  0  0  0
   -7.1901    2.4791   -1.8303 H   0  0  0  0  0  0  0  0  0  0  0  0
   -5.5188    3.1122   -0.1144 H   0  0  0  0  0  0  0  0  0  0  0  0
   -6.1687    1.7668    0.8084 H   0  0  0  0  0  0  0  0  0  0  0  0
   -3.2551    2.4198    0.2088 H   0  0  0  0  0  0  0  0  0  0  0  0
   -4.0515    2.2527    1.7734 H   0  0  0  0  0  0  0  0  0  0  0  0
    3.0199    2.2532   -0.1087 H   0  0  0  0  0  0  0  0  0  0  0  0
  1  2  1  0
  2  3  1  0
  3  4  2  0
  3  5  1  0
  5  6  2  0
  6  7  1  0
  7  8  2  0
  8  9  1  0
  9 10  1  0
 10 11  2  0
 11 12  1  0
 12 13  2  0
 13 14  1  0
 13 15  1  0
 15 16  2  0
 16 17  1  0
 17 18  1  0
 18 19  1  0
 19 20  1  0
 20 21  2  0
 20 22  1  0
 22 23  1  0
 23 24  1  0
 24 25  1  0
 25 26  1  0
 25 27  1  0
 27 28  1  0
  8 29  1  0
 29 30  2  0
 30 31  1  0
 30  5  1  0
 14 10  1  0
 28 22  1  0
 19 12  1  0
  1 32  1  0
  1 33  1  0
  1 34  1  0
  2 35  1  0
  6 36  1  0
  7 37  1  0
  9 38  1  0
 15 39  1  0
 16 40  1  0
 17 41  1  0
 18 42  1  0
 18 43  1  0
 19 44  1  0
 23 45  1  0
 23 46  1  0
 24 47  1  0
 24 48  1  0
 26 49  1  0
 26 50  1  0
 26 51  1  0
 27 52  1  0
 27 53  1  0
 28 54  1  0
 28 55  1  0
 29 56  1  0
M  END
$$$$
