
     RDKit          3D

 48 50  0  0  0  0  0  0  0  0999 V2000
    6.2003   -3.0718   -1.0162 C   0  0  0  0  0  0  0  0  0  0  0  0
    5.1508   -2.3048   -0.4396 O   0  0  0  0  0  0  0  0  0  0  0  0
    5.2990   -0.9436   -0.4308 C   0  0  0  0  0  0  0  0  0  0  0  0
    6.3632   -0.2427   -1.0019 C   0  0  0  0  0  0  0  0  0  0  0  0
    6.4098    1.1509   -0.9148 C   0  0  0  0  0  0  0  0  0  0  0  0
    5.3905    1.8454   -0.2681 C   0  0  0  0  0  0  0  0  0  0  0  0
    5.5300    3.2062   -0.2029 O   0  0  0  0  0  0  0  0  0  0  0  0
    4.2950    1.1644    0.2768 C   0  0  0  0  0  0  0  0  0  0  0  0
    3.2171    1.9342    0.9367 C   0  0  0  0  0  0  0  0  0  0  0  0
    3.5092    3.0190    1.4430 O   0  0  0  0  0  0  0  0  0  0  0  0
    1.8029    1.4929    0.9675 C   0  0  0  0  0  0  0  0  0  0  0  0
    1.1975    0.8856   -0.1395 C   0  0  0  0  0  0  0  0  0  0  0  0
   -0.1497    0.5105   -0.0822 C   0  0  0  0  0  0  0  0  0  0  0  0
   -0.9016    0.7630    1.0734 C   0  0  0  0  0  0  0  0  0  0  0  0
   -2.3354    0.3779    1.1831 C   0  0  0  0  0  0  0  0  0  0  0  0
   -2.8160    0.1032    2.2764 O   0  0  0  0  0  0  0  0  0  0  0  0
   -3.0638    0.3809    0.0114 N   0  0  0  0  0  0  0  0  0  0  0  0
   -4.4845    0.0413   -0.0028 C   0  0  1  0  0  0  0  0  0  0  0  0
   -5.1708    0.5129   -1.3003 C   0  0  0  0  0  0  0  0  0  0  0  0
   -6.6228    0.2904   -1.3237 N   0  0  0  0  0  0  0  0  0  0  0  0
   -7.0291   -0.9231   -0.5944 C   0  0  0  0  0  0  0  0  0  0  0  0
   -5.9407   -1.9932   -0.4803 C   0  0  0  0  0  0  0  0  0  0  0  0
   -5.5933   -2.3831   -1.7448 F   0  0  0  0  0  0  0  0  0  0  0  0
   -4.6911   -1.4682    0.2164 C   0  0  0  0  0  0  0  0  0  0  0  0
   -0.2933    1.3762    2.1760 C   0  0  0  0  0  0  0  0  0  0  0  0
    1.0512    1.7518    2.1191 C   0  0  0  0  0  0  0  0  0  0  0  0
    4.2754   -0.2299    0.2107 C   0  0  0  0  0  0  0  0  0  0  0  0
    3.2763   -0.9184    0.7864 F   0  0  0  0  0  0  0  0  0  0  0  0
    6.3011   -2.8588   -2.0854 H   0  0  0  0  0  0  0  0  0  0  0  0
    7.1459   -2.9079   -0.4887 H   0  0  0  0  0  0  0  0  0  0  0  0
    5.9388   -4.1290   -0.9105 H   0  0  0  0  0  0  0  0  0  0  0  0
    7.1775   -0.7473   -1.5122 H   0  0  0  0  0  0  0  0  0  0  0  0
    7.2472    1.6974   -1.3431 H   0  0  0  0  0  0  0  0  0  0  0  0
    4.8751    3.5457    0.4502 H   0  0  0  0  0  0  0  0  0  0  0  0
    1.7581    0.6945   -1.0510 H   0  0  0  0  0  0  0  0  0  0  0  0
   -0.5869   -0.0001   -0.9357 H   0  0  0  0  0  0  0  0  0  0  0  0
   -2.6476    0.7435   -0.8352 H   0  0  0  0  0  0  0  0  0  0  0  0
   -4.9445    0.5781    0.8385 H   0  0  0  0  0  0  0  0  0  0  0  0
   -4.9871    1.5835   -1.4488 H   0  0  0  0  0  0  0  0  0  0  0  0
   -4.7118    0.0046   -2.1587 H   0  0  0  0  0  0  0  0  0  0  0  0
   -6.9149    0.2049   -2.2988 H   0  0  0  0  0  0  0  0  0  0  0  0
   -7.3564   -0.6289    0.4097 H   0  0  0  0  0  0  0  0  0  0  0  0
   -7.9030   -1.3466   -1.1021 H   0  0  0  0  0  0  0  0  0  0  0  0
   -6.3198   -2.8827    0.0324 H   0  0  0  0  0  0  0  0  0  0  0  0
   -3.8225   -2.0340   -0.1426 H   0  0  0  0  0  0  0  0  0  0  0  0
   -4.7666   -1.6544    1.2949 H   0  0  0  0  0  0  0  0  0  0  0  0
   -0.8680    1.5681    3.0806 H   0  0  0  0  0  0  0  0  0  0  0  0
    1.5094    2.2414    2.9765 H   0  0  0  0  0  0  0  0  0  0  0  0
  1  2  1  0
  2  3  1  0
  3  4  2  0
  4  5  1  0
  5  6  2  0
  6  7  1  0
  6  8  1  0
  8  9  1  0
  9 10  2  0
  9 11  1  0
 11 12  2  0
 12 13  1  0
 13 14  2  0
 14 15  1  0
 15 16  2  0
 15 17  1  0
 17 18  1  0
 18 19  1  0
 19 20  1  0
 20 21  1  0
 21 22  1  0
 22 23  1  0
 22 24  1  0
 14 25  1  0
 25 26  2  0
  8 27  2  0
 27 28  1  0
 27  3  1  0
 26 11  1  0
 24 18  1  0
  1 29  1  0
  1 30  1  0
  1 31  1  0
  4 32  1  0
  5 33  1  0
  7 34  1  0
 12 35  1  0
 13 36  1  0
 17 37  1  0
 18 38  1  1
 19 39  1  0
 19 40  1  0
 20 41  1  0
 21 42  1  0
 21 43  1  0
 22 44  1  0
 24 45  1  0
 24 46  1  0
 25 47  1  0
 26 48  1  0
M  END
$$$$
