
     RDKit          3D

 48 50  0  0  0  0  0  0  0  0999 V2000
    7.1887    0.8966   -1.1266 C   0  0  0  0  0  0  0  0  0  0  0  0
    5.8230    0.7626   -0.7498 O   0  0  0  0  0  0  0  0  0  0  0  0
    5.5553   -0.0114    0.3459 C   0  0  0  0  0  0  0  0  0  0  0  0
    6.4951   -0.7094    1.1059 C   0  0  0  0  0  0  0  0  0  0  0  0
    6.0861   -1.4521    2.2168 C   0  0  0  0  0  0  0  0  0  0  0  0
    4.7391   -1.5038    2.5626 C   0  0  0  0  0  0  0  0  0  0  0  0
    4.4232   -2.2280    3.6809 O   0  0  0  0  0  0  0  0  0  0  0  0
    3.7797   -0.8386    1.7887 C   0  0  0  0  0  0  0  0  0  0  0  0
    2.3466   -0.9248    2.1679 C   0  0  0  0  0  0  0  0  0  0  0  0
    2.0603   -1.1501    3.3441 O   0  0  0  0  0  0  0  0  0  0  0  0
    1.2520   -0.7743    1.1809 C   0  0  0  0  0  0  0  0  0  0  0  0
    1.3270   -1.3581   -0.0883 C   0  0  0  0  0  0  0  0  0  0  0  0
    0.2646   -1.2091   -0.9839 C   0  0  0  0  0  0  0  0  0  0  0  0
   -0.8843   -0.5002   -0.6083 C   0  0  0  0  0  0  0  0  0  0  0  0
   -1.9823   -0.3659   -1.6026 C   0  0  0  0  0  0  0  0  0  0  0  0
   -1.7164   -0.2924   -2.7968 O   0  0  0  0  0  0  0  0  0  0  0  0
   -3.2658   -0.3477   -1.1005 N   0  0  0  0  0  0  0  0  0  0  0  0
   -4.3922    0.0907   -1.9244 C   0  0  1  0  0  0  0  0  0  0  0  0
   -5.6896   -0.5935   -1.4653 C   0  0  0  0  0  0  0  0  0  0  0  0
   -6.6107    0.3433   -0.6815 C   0  0  0  0  0  0  0  0  0  0  0  0
   -5.8317    1.2971    0.2196 C   0  0  0  0  0  0  0  0  0  0  0  0
   -4.8096    2.0869   -0.4698 N   0  0  0  0  0  0  0  0  0  0  0  0
   -4.5256    1.6255   -1.8412 C   0  0  0  0  0  0  0  0  0  0  0  0
   -0.9581    0.0800    0.6645 C   0  0  0  0  0  0  0  0  0  0  0  0
    0.1043   -0.0684    1.5612 C   0  0  0  0  0  0  0  0  0  0  0  0
    4.2007   -0.0751    0.6923 C   0  0  0  0  0  0  0  0  0  0  0  0
    7.7752    1.3623   -0.3270 H   0  0  0  0  0  0  0  0  0  0  0  0
    7.2314    1.5564   -1.9991 H   0  0  0  0  0  0  0  0  0  0  0  0
    7.6137   -0.0696   -1.4186 H   0  0  0  0  0  0  0  0  0  0  0  0
    7.5540   -0.6903    0.8696 H   0  0  0  0  0  0  0  0  0  0  0  0
    6.8189   -1.9836    2.8188 H   0  0  0  0  0  0  0  0  0  0  0  0
    3.4918   -2.0148    3.9190 H   0  0  0  0  0  0  0  0  0  0  0  0
    2.1942   -1.9396   -0.3915 H   0  0  0  0  0  0  0  0  0  0  0  0
    0.3269   -1.6550   -1.9753 H   0  0  0  0  0  0  0  0  0  0  0  0
   -3.3971   -0.2617   -0.1029 H   0  0  0  0  0  0  0  0  0  0  0  0
   -4.1853   -0.1973   -2.9619 H   0  0  0  0  0  0  0  0  0  0  0  0
   -6.2404   -0.9547   -2.3430 H   0  0  0  0  0  0  0  0  0  0  0  0
   -5.4654   -1.4821   -0.8619 H   0  0  0  0  0  0  0  0  0  0  0  0
   -7.3139   -0.2484   -0.0845 H   0  0  0  0  0  0  0  0  0  0  0  0
   -7.2193    0.9258   -1.3844 H   0  0  0  0  0  0  0  0  0  0  0  0
   -5.3389    0.7214    1.0127 H   0  0  0  0  0  0  0  0  0  0  0  0
   -6.5313    1.9758    0.7205 H   0  0  0  0  0  0  0  0  0  0  0  0
   -5.0903    3.0669   -0.5060 H   0  0  0  0  0  0  0  0  0  0  0  0
   -5.3185    1.9679   -2.5179 H   0  0  0  0  0  0  0  0  0  0  0  0
   -3.5972    2.1025   -2.1751 H   0  0  0  0  0  0  0  0  0  0  0  0
   -1.8184    0.6718    0.9652 H   0  0  0  0  0  0  0  0  0  0  0  0
    0.0400    0.3761    2.5527 H   0  0  0  0  0  0  0  0  0  0  0  0
    3.4904    0.4949    0.0982 H   0  0  0  0  0  0  0  0  0  0  0  0
  1  2  1  0
  2  3  1  0
  3  4  2  0
  4  5  1  0
  5  6  2  0
  6  7  1  0
  6  8  1  0
  8  9  1  0
  9 10  2  0
  9 11  1  0
 11 12  2  0
 12 13  1  0
 13 14  2  0
 14 15  1  0
 15 16  2  0
 15 17  1  0
 17 18  1  0
 18 19  1  0
 19 20  1  0
 20 21  1  0
 21 22  1  0
 22 23  1  0
 14 24  1  0
 24 25  2  0
  8 26  2  0
 26  3  1  0
 25 11  1  0
 23 18  1  0
  1 27  1  0
  1 28  1  0
  1 29  1  0
  4 30  1  0
  5 31  1  0
  7 32  1  0
 12 33  1  0
 13 34  1  0
 17 35  1  0
 18 36  1  6
 19 37  1  0
 19 38  1  0
 20 39  1  0
 20 40  1  0
 21 41  1  0
 21 42  1  0
 22 43  1  0
 23 44  1  0
 23 45  1  0
 24 46  1  0
 25 47  1  0
 26 48  1  0
M  END
$$$$
