
     RDKit          3D

 54 56  0  0  0  0  0  0  0  0999 V2000
    6.9350   -3.2540   -0.4236 H   0  0  0  0  0  0  0  0  0  0  0  0
    7.1381   -2.3433    0.1487 C   0  0  0  0  0  0  0  0  0  0  0  0
    6.8668   -2.5302    1.1927 H   0  0  0  0  0  0  0  0  0  0  0  0
    8.2138   -2.1465    0.1026 H   0  0  0  0  0  0  0  0  0  0  0  0
    6.3448   -1.1765   -0.4197 C   0  0  0  0  0  0  0  0  0  0  0  0
    5.2797   -1.4304   -0.3911 H   0  0  0  0  0  0  0  0  0  0  0  0
    6.6195   -1.0339   -1.4711 H   0  0  0  0  0  0  0  0  0  0  0  0
    6.6057    0.1118    0.3660 C   0  0  0  0  0  0  0  0  0  0  0  0
    7.6865    0.3022    0.3812 H   0  0  0  0  0  0  0  0  0  0  0  0
    6.2927   -0.0320    1.4084 H   0  0  0  0  0  0  0  0  0  0  0  0
    5.8904    1.3370   -0.2290 C   0  0  0  0  0  0  0  0  0  0  0  0
    6.1697    1.4362   -1.2846 H   0  0  0  0  0  0  0  0  0  0  0  0
    4.4416    1.1991   -0.1303 N   0  0  0  0  0  0  0  0  0  0  0  0
    3.6604    0.8627   -1.2130 C   0  0  0  0  0  0  0  0  0  0  0  0
    4.0924    0.6429   -2.3378 O   0  0  0  0  0  0  0  0  0  0  0  0
    2.2087    0.7053   -0.9543 C   0  0  0  0  0  0  0  0  0  0  0  0
    1.5944   -0.4403   -1.4768 C   0  0  0  0  0  0  0  0  0  0  0  0
    0.2289   -0.6622   -1.2786 C   0  0  0  0  0  0  0  0  0  0  0  0
   -0.5568    0.2572   -0.5671 C   0  0  0  0  0  0  0  0  0  0  0  0
   -1.9937    0.0224   -0.3549 C   0  0  0  0  0  0  0  0  0  0  0  0
   -2.4610   -1.1748    0.1970 C   0  0  0  0  0  0  0  0  0  0  0  0
   -3.8324   -1.3929    0.4023 C   0  0  0  0  0  0  0  0  0  0  0  0
   -4.7997   -0.4349    0.0688 C   0  0  0  0  0  0  0  0  0  0  0  0
   -6.1407   -0.6527    0.2729 N   0  0  0  0  0  0  0  0  0  0  0  0
   -6.7118   -1.9261    0.7059 C   0  0  0  0  0  0  0  0  0  0  0  0
   -8.2115   -1.7528    0.4782 C   0  0  0  0  0  0  0  0  0  0  0  0
   -8.4224   -0.2660    0.7022 C   0  0  0  0  0  0  0  0  0  0  0  0
   -7.1785    0.3564    0.0729 C   0  0  0  0  0  0  0  0  0  0  0  0
   -4.3170    0.7589   -0.4847 C   0  0  0  0  0  0  0  0  0  0  0  0
   -2.9478    0.9873   -0.6941 C   0  0  0  0  0  0  0  0  0  0  0  0
    0.0690    1.4137   -0.0681 C   0  0  0  0  0  0  0  0  0  0  0  0
    1.4415    1.6487   -0.2615 C   0  0  0  0  0  0  0  0  0  0  0  0
    1.9995    2.8675    0.2448 C   0  0  0  0  0  0  0  0  0  0  0  0
    2.4423    3.8413    0.6943 N   0  0  0  0  0  0  0  0  0  0  0  0
    6.3224    2.6096    0.4977 C   0  0  0  0  0  0  0  0  0  0  0  0
    7.4037    2.7607    0.4154 H   0  0  0  0  0  0  0  0  0  0  0  0
    6.0623    2.5688    1.5613 H   0  0  0  0  0  0  0  0  0  0  0  0
    5.8247    3.4870    0.0701 H   0  0  0  0  0  0  0  0  0  0  0  0
    4.0397    1.2355    0.7976 H   0  0  0  0  0  0  0  0  0  0  0  0
    2.1797   -1.1630   -2.0439 H   0  0  0  0  0  0  0  0  0  0  0  0
   -0.2244   -1.5577   -1.7022 H   0  0  0  0  0  0  0  0  0  0  0  0
   -1.7624   -1.9556    0.4903 H   0  0  0  0  0  0  0  0  0  0  0  0
   -4.1263   -2.3397    0.8465 H   0  0  0  0  0  0  0  0  0  0  0  0
   -6.5010   -2.0907    1.7689 H   0  0  0  0  0  0  0  0  0  0  0  0
   -6.3387   -2.7765    0.1252 H   0  0  0  0  0  0  0  0  0  0  0  0
   -8.8116   -2.3753    1.1477 H   0  0  0  0  0  0  0  0  0  0  0  0
   -8.4675   -2.0143   -0.5559 H   0  0  0  0  0  0  0  0  0  0  0  0
   -9.3485    0.1061    0.2554 H   0  0  0  0  0  0  0  0  0  0  0  0
   -8.4485   -0.0505    1.7774 H   0  0  0  0  0  0  0  0  0  0  0  0
   -6.9435    1.3071    0.5636 H   0  0  0  0  0  0  0  0  0  0  0  0
   -7.3351    0.5284   -0.9983 H   0  0  0  0  0  0  0  0  0  0  0  0
   -5.0051    1.5454   -0.7818 H   0  0  0  0  0  0  0  0  0  0  0  0
   -2.6431    1.9306   -1.1426 H   0  0  0  0  0  0  0  0  0  0  0  0
   -0.5249    2.1430    0.4847 H   0  0  0  0  0  0  0  0  0  0  0  0
  1  2  1  0
  2  3  1  0
  2  4  1  0
  2  5  1  0
  5  6  1  0
  5  7  1  0
  5  8  1  0
  8  9  1  0
  8 10  1  0
  8 11  1  0
 11 12  1  0
 11 13  1  0
 13 14  1  0
 14 15  2  0
 14 16  1  0
 16 17  2  0
 17 18  1  0
 18 19  2  0
 19 20  1  0
 20 21  2  0
 21 22  1  0
 22 23  2  0
 23 24  1  0
 24 25  1  0
 25 26  1  0
 26 27  1  0
 27 28  1  0
 23 29  1  0
 29 30  2  0
 19 31  1  0
 31 32  2  0
 32 33  1  0
 33 34  3  0
 11 35  1  0
 35 36  1  0
 35 37  1  0
 35 38  1  0
 32 16  1  0
 30 20  1  0
 28 24  1  0
 13 39  1  0
 17 40  1  0
 18 41  1  0
 21 42  1  0
 22 43  1  0
 25 44  1  0
 25 45  1  0
 26 46  1  0
 26 47  1  0
 27 48  1  0
 27 49  1  0
 28 50  1  0
 28 51  1  0
 29 52  1  0
 30 53  1  0
 31 54  1  0
M  ISO  8   1   2   3   2   4   2   6   2   7   2   9   2  10   2  12   2
M  ISO  3  36   2  37   2  38   2
M  END
$$$$
