
     RDKit          3D

 52 54  0  0  0  0  0  0  0  0999 V2000
    8.4437   -1.2687    0.7671 C   0  0  0  0  0  0  0  0  0  0  0  0
    6.9242   -1.2887    0.6943 C   0  0  0  0  0  0  0  0  0  0  0  0
    6.3303   -0.1077   -0.0880 C   0  0  0  0  0  0  0  0  0  0  0  0
    6.7216   -0.1267   -1.5662 C   0  0  0  0  0  0  0  0  0  0  0  0
    4.8753   -0.1284    0.0399 N   0  0  0  0  0  0  0  0  0  0  0  0
    4.1285    1.0233   -0.0932 C   0  0  0  0  0  0  0  0  0  0  0  0
    4.5937    2.1474   -0.2114 O   0  0  0  0  0  0  0  0  0  0  0  0
    2.6611    0.8294   -0.0895 C   0  0  0  0  0  0  0  0  0  0  0  0
    2.0826    0.0694    0.9362 C   0  0  0  0  0  0  0  0  0  0  0  0
    0.6966   -0.1031    0.9830 C   0  0  0  0  0  0  0  0  0  0  0  0
   -0.1373    0.4791    0.0154 C   0  0  0  0  0  0  0  0  0  0  0  0
   -1.5964    0.3021    0.0688 C   0  0  0  0  0  0  0  0  0  0  0  0
   -2.4580    1.4011    0.0881 C   0  0  0  0  0  0  0  0  0  0  0  0
   -3.8495    1.2286    0.1432 C   0  0  0  0  0  0  0  0  0  0  0  0
   -4.4583   -0.0388    0.1812 C   0  0  0  0  0  0  0  0  0  0  0  0
   -5.8318   -0.1497    0.2396 N   0  0  0  0  0  0  0  0  0  0  0  0
   -6.5501   -1.3942    0.5085 C   0  0  0  0  0  0  0  0  0  0  0  0
   -7.9828   -0.9407    0.7859 C   0  0  0  0  0  0  0  0  0  0  0  0
   -8.1214    0.2997   -0.0770 C   0  0  0  0  0  0  0  0  0  0  0  0
   -6.7571    0.9676    0.0677 C   0  0  0  0  0  0  0  0  0  0  0  0
   -3.5699   -1.1355    0.1521 C   0  0  0  0  0  0  0  0  0  0  0  0
   -4.0535   -2.4231    0.1515 O   0  0  0  0  0  0  0  0  0  0  0  0
   -2.1742   -0.9721    0.1011 C   0  0  0  0  0  0  0  0  0  0  0  0
    0.4608    1.2404   -1.0049 C   0  0  0  0  0  0  0  0  0  0  0  0
    1.8530    1.4226   -1.0653 C   0  0  0  0  0  0  0  0  0  0  0  0
    2.3972    2.1697   -2.1633 C   0  0  0  0  0  0  0  0  0  0  0  0
    2.7760    2.7463   -3.0967 N   0  0  0  0  0  0  0  0  0  0  0  0
    8.8054   -0.3195    1.1748 H   0  0  0  0  0  0  0  0  0  0  0  0
    8.7983   -2.0738    1.4189 H   0  0  0  0  0  0  0  0  0  0  0  0
    8.8956   -1.4189   -0.2175 H   0  0  0  0  0  0  0  0  0  0  0  0
    6.5947   -2.2382    0.2540 H   0  0  0  0  0  0  0  0  0  0  0  0
    6.5302   -1.2727    1.7187 H   0  0  0  0  0  0  0  0  0  0  0  0
    6.6899    0.8303    0.3531 H   0  0  0  0  0  0  0  0  0  0  0  0
    7.8029   -0.0242   -1.6961 H   0  0  0  0  0  0  0  0  0  0  0  0
    6.4037   -1.0590   -2.0459 H   0  0  0  0  0  0  0  0  0  0  0  0
    6.2472    0.6984   -2.1089 H   0  0  0  0  0  0  0  0  0  0  0  0
    4.4091   -1.0210   -0.0623 H   0  0  0  0  0  0  0  0  0  0  0  0
    2.7008   -0.3646    1.7194 H   0  0  0  0  0  0  0  0  0  0  0  0
    0.2643   -0.6784    1.8010 H   0  0  0  0  0  0  0  0  0  0  0  0
   -2.0612    2.4145    0.0769 H   0  0  0  0  0  0  0  0  0  0  0  0
   -4.4562    2.1297    0.1723 H   0  0  0  0  0  0  0  0  0  0  0  0
   -6.5293   -2.0445   -0.3733 H   0  0  0  0  0  0  0  0  0  0  0  0
   -6.1613   -1.9300    1.3807 H   0  0  0  0  0  0  0  0  0  0  0  0
   -8.0951   -0.6746    1.8440 H   0  0  0  0  0  0  0  0  0  0  0  0
   -8.7197   -1.7123    0.5466 H   0  0  0  0  0  0  0  0  0  0  0  0
   -8.2918    0.0120   -1.1215 H   0  0  0  0  0  0  0  0  0  0  0  0
   -8.9419    0.9500    0.2383 H   0  0  0  0  0  0  0  0  0  0  0  0
   -6.7403    1.6116    0.9546 H   0  0  0  0  0  0  0  0  0  0  0  0
   -6.5347    1.5669   -0.8217 H   0  0  0  0  0  0  0  0  0  0  0  0
   -3.3170   -3.0402    0.0267 H   0  0  0  0  0  0  0  0  0  0  0  0
   -1.5287   -1.8458    0.0740 H   0  0  0  0  0  0  0  0  0  0  0  0
   -0.1690    1.6890   -1.7749 H   0  0  0  0  0  0  0  0  0  0  0  0
  1  2  1  0
  2  3  1  0
  3  4  1  0
  3  5  1  0
  5  6  1  0
  6  7  2  0
  6  8  1  0
  8  9  2  0
  9 10  1  0
 10 11  2  0
 11 12  1  0
 12 13  2  0
 13 14  1  0
 14 15  2  0
 15 16  1  0
 16 17  1  0
 17 18  1  0
 18 19  1  0
 19 20  1  0
 15 21  1  0
 21 22  1  0
 21 23  2  0
 11 24  1  0
 24 25  2  0
 25 26  1  0
 26 27  3  0
 25  8  1  0
 23 12  1  0
 20 16  1  0
  1 28  1  0
  1 29  1  0
  1 30  1  0
  2 31  1  0
  2 32  1  0
  3 33  1  0
  4 34  1  0
  4 35  1  0
  4 36  1  0
  5 37  1  0
  9 38  1  0
 10 39  1  0
 13 40  1  0
 14 41  1  0
 17 42  1  0
 17 43  1  0
 18 44  1  0
 18 45  1  0
 19 46  1  0
 19 47  1  0
 20 48  1  0
 20 49  1  0
 22 50  1  0
 23 51  1  0
 24 52  1  0
M  END
$$$$
