
     RDKit          3D

 54 56  0  0  0  0  0  0  0  0999 V2000
   -5.6256    1.9643    0.8355 C   0  0  0  0  0  0  0  0  0  0  0  0
   -6.9178    1.1664    0.7730 C   0  0  0  0  0  0  0  0  0  0  0  0
   -6.7587   -0.3360    1.0378 C   0  0  0  0  0  0  0  0  0  0  0  0
   -6.0085   -1.1068   -0.0621 C   0  0  0  0  0  0  0  0  0  0  0  0
   -6.2556   -2.6102    0.0826 C   0  0  0  0  0  0  0  0  0  0  0  0
   -4.5749   -0.8478   -0.0081 N   0  0  0  0  0  0  0  0  0  0  0  0
   -3.7789   -0.9615   -1.1267 C   0  0  0  0  0  0  0  0  0  0  0  0
   -4.2020   -1.1564   -2.2594 O   0  0  0  0  0  0  0  0  0  0  0  0
   -2.3224   -0.7772   -0.9240 C   0  0  0  0  0  0  0  0  0  0  0  0
   -1.6728    0.1146   -1.7868 C   0  0  0  0  0  0  0  0  0  0  0  0
   -0.2985    0.3377   -1.6665 C   0  0  0  0  0  0  0  0  0  0  0  0
    0.4594   -0.3306   -0.6928 C   0  0  0  0  0  0  0  0  0  0  0  0
    1.9065   -0.0978   -0.5673 C   0  0  0  0  0  0  0  0  0  0  0  0
    2.7615   -0.2286   -1.6664 C   0  0  0  0  0  0  0  0  0  0  0  0
    4.1419   -0.0076   -1.5417 C   0  0  0  0  0  0  0  0  0  0  0  0
    4.7326    0.3613   -0.3248 C   0  0  0  0  0  0  0  0  0  0  0  0
    6.0899    0.5626   -0.2094 N   0  0  0  0  0  0  0  0  0  0  0  0
    6.7457    1.0099    1.0179 C   0  0  0  0  0  0  0  0  0  0  0  0
    8.2292    0.9867    0.6632 C   0  0  0  0  0  0  0  0  0  0  0  0
    8.2253    1.4413   -0.7813 C   0  0  0  0  0  0  0  0  0  0  0  0
    8.1034    2.7988   -0.8081 F   0  0  0  0  0  0  0  0  0  0  0  0
    6.9633    0.8020   -1.3684 C   0  0  0  0  0  0  0  0  0  0  0  0
    3.8656    0.4769    0.7703 C   0  0  0  0  0  0  0  0  0  0  0  0
    2.4838    0.2572    0.6563 C   0  0  0  0  0  0  0  0  0  0  0  0
   -0.2030   -1.2386    0.1526 C   0  0  0  0  0  0  0  0  0  0  0  0
   -1.5843   -1.4726    0.0399 C   0  0  0  0  0  0  0  0  0  0  0  0
   -2.1850   -2.4400    0.9084 C   0  0  0  0  0  0  0  0  0  0  0  0
   -2.6733   -3.1907    1.6461 N   0  0  0  0  0  0  0  0  0  0  0  0
   -5.8479    3.0363    0.8163 H   0  0  0  0  0  0  0  0  0  0  0  0
   -4.9809    1.7536   -0.0217 H   0  0  0  0  0  0  0  0  0  0  0  0
   -5.0715    1.7509    1.7548 H   0  0  0  0  0  0  0  0  0  0  0  0
   -7.3980    1.3252   -0.1996 H   0  0  0  0  0  0  0  0  0  0  0  0
   -7.6027    1.5706    1.5287 H   0  0  0  0  0  0  0  0  0  0  0  0
   -7.7713   -0.7506    1.1276 H   0  0  0  0  0  0  0  0  0  0  0  0
   -6.2727   -0.4882    2.0100 H   0  0  0  0  0  0  0  0  0  0  0  0
   -6.3828   -0.7945   -1.0446 H   0  0  0  0  0  0  0  0  0  0  0  0
   -7.3233   -2.8406    0.0072 H   0  0  0  0  0  0  0  0  0  0  0  0
   -5.7357   -3.1719   -0.7011 H   0  0  0  0  0  0  0  0  0  0  0  0
   -5.8931   -2.9793    1.0484 H   0  0  0  0  0  0  0  0  0  0  0  0
   -4.1614   -0.7283    0.9073 H   0  0  0  0  0  0  0  0  0  0  0  0
   -2.2382    0.6398   -2.5555 H   0  0  0  0  0  0  0  0  0  0  0  0
    0.1789    1.0482   -2.3403 H   0  0  0  0  0  0  0  0  0  0  0  0
    2.3682   -0.5217   -2.6377 H   0  0  0  0  0  0  0  0  0  0  0  0
    4.7519   -0.1467   -2.4299 H   0  0  0  0  0  0  0  0  0  0  0  0
    6.5484    0.3430    1.8638 H   0  0  0  0  0  0  0  0  0  0  0  0
    6.4268    2.0274    1.2738 H   0  0  0  0  0  0  0  0  0  0  0  0
    8.6180   -0.0355    0.7384 H   0  0  0  0  0  0  0  0  0  0  0  0
    8.8112    1.6422    1.3165 H   0  0  0  0  0  0  0  0  0  0  0  0
    9.1336    1.1767   -1.3283 H   0  0  0  0  0  0  0  0  0  0  0  0
    7.2043   -0.1563   -1.8410 H   0  0  0  0  0  0  0  0  0  0  0  0
    6.5055    1.4780   -2.0985 H   0  0  0  0  0  0  0  0  0  0  0  0
    4.2469    0.7524    1.7494 H   0  0  0  0  0  0  0  0  0  0  0  0
    1.8650    0.3809    1.5424 H   0  0  0  0  0  0  0  0  0  0  0  0
    0.3739   -1.7889    0.8973 H   0  0  0  0  0  0  0  0  0  0  0  0
  1  2  1  0
  2  3  1  0
  3  4  1  0
  4  5  1  0
  4  6  1  0
  6  7  1  0
  7  8  2  0
  7  9  1  0
  9 10  2  0
 10 11  1  0
 11 12  2  0
 12 13  1  0
 13 14  2  0
 14 15  1  0
 15 16  2  0
 16 17  1  0
 17 18  1  0
 18 19  1  0
 19 20  1  0
 20 21  1  0
 20 22  1  0
 16 23  1  0
 23 24  2  0
 12 25  1  0
 25 26  2  0
 26 27  1  0
 27 28  3  0
 26  9  1  0
 24 13  1  0
 22 17  1  0
  1 29  1  0
  1 30  1  0
  1 31  1  0
  2 32  1  0
  2 33  1  0
  3 34  1  0
  3 35  1  0
  4 36  1  0
  5 37  1  0
  5 38  1  0
  5 39  1  0
  6 40  1  0
 10 41  1  0
 11 42  1  0
 14 43  1  0
 15 44  1  0
 18 45  1  0
 18 46  1  0
 19 47  1  0
 19 48  1  0
 20 49  1  0
 22 50  1  0
 22 51  1  0
 23 52  1  0
 24 53  1  0
 25 54  1  0
M  END
$$$$
