
     RDKit          3D

 83 88  0  0  0  0  0  0  0  0999 V2000
   -7.5197    1.3571    3.2972 C   0  0  0  0  0  0  0  0  0  0  0  0
   -7.0779    1.3644    1.9397 O   0  0  0  0  0  0  0  0  0  0  0  0
   -7.2025    2.5932    1.3184 C   0  0  0  0  0  0  0  0  0  0  0  0
   -7.7386    3.6151    2.0372 N   0  0  0  0  0  0  0  0  0  0  0  0
   -7.8743    4.8046    1.4061 C   0  0  0  0  0  0  0  0  0  0  0  0
   -7.5027    5.0171    0.0935 C   0  0  0  0  0  0  0  0  0  0  0  0
   -7.6623    6.2184   -0.4734 F   0  0  0  0  0  0  0  0  0  0  0  0
   -6.9590    3.9672   -0.6296 C   0  0  0  0  0  0  0  0  0  0  0  0
   -6.7945    2.7182   -0.0152 C   0  0  0  0  0  0  0  0  0  0  0  0
   -6.2097    1.6228   -0.8387 C   0  0  0  0  0  0  0  0  0  0  0  0
   -6.0867    1.7734   -2.0511 O   0  0  0  0  0  0  0  0  0  0  0  0
   -5.8206    0.4671   -0.1985 N   0  0  0  0  0  0  0  0  0  0  0  0
   -5.3656   -0.7286   -0.9244 C   0  0  2  0  0  0  0  0  0  0  0  0
   -6.5797   -1.5145   -1.4412 C   0  0  0  0  0  0  0  0  0  0  0  0
   -7.3683   -2.2489   -0.3638 C   0  0  0  0  0  0  0  0  0  0  0  0
   -6.8129   -3.6349   -0.0433 C   0  0  0  0  0  0  0  0  0  0  0  0
   -5.5210   -3.6268    0.6521 N   0  0  0  0  0  0  0  0  0  0  0  0
   -5.1877   -5.0001    1.0603 C   0  0  0  0  0  0  0  0  0  0  0  0
   -4.4201   -3.0609   -0.1510 C   0  0  0  0  0  0  0  0  0  0  0  0
   -4.3425   -1.5223   -0.0762 C   0  0  1  0  0  0  0  0  0  0  0  0
   -2.9784   -1.0953   -0.4088 N   0  0  0  0  0  0  0  0  0  0  0  0
   -2.2906   -1.2803   -1.5715 C   0  0  0  0  0  0  0  0  0  0  0  0
   -1.0329   -0.7724   -1.3099 C   0  0  0  0  0  0  0  0  0  0  0  0
    0.0819   -0.7162   -2.2398 C   0  0  0  0  0  0  0  0  0  0  0  0
   -0.0782   -0.9093   -3.4452 O   0  0  0  0  0  0  0  0  0  0  0  0
    1.4543   -0.4283   -1.7580 C   0  0  0  0  0  0  0  0  0  0  0  0
    1.8946   -0.7097   -0.4776 C   0  0  0  0  0  0  0  0  0  0  0  0
    3.1703   -0.5056   -0.0528 N   0  0  0  0  0  0  0  0  0  0  0  0
    4.1025   -0.0154   -0.9142 C   0  0  0  0  0  0  0  0  0  0  0  0
    5.3972    0.1630   -0.4300 N   0  0  0  0  0  0  0  0  0  0  0  0
    6.5551    0.0300   -1.3213 C   0  0  0  0  0  0  0  0  0  0  0  0
    7.8486    0.6090   -0.6851 C   0  0  0  0  0  0  0  0  0  0  0  0
    8.0542    0.3629    0.7583 N   0  0  0  0  0  0  0  0  0  0  0  0
    9.4351   -0.0155    1.0865 C   0  0  0  0  0  0  0  0  0  0  0  0
   10.4519    1.0575    0.7828 C   0  0  0  0  0  0  0  0  0  0  0  0
   10.2614    2.3906    1.1620 C   0  0  0  0  0  0  0  0  0  0  0  0
   11.2359    3.3411    0.8711 C   0  0  0  0  0  0  0  0  0  0  0  0
   12.3847    2.9214    0.2224 C   0  0  0  0  0  0  0  0  0  0  0  0
   12.6174    1.6423   -0.1450 N   0  0  0  0  0  0  0  0  0  0  0  0
   11.6496    0.7434    0.1454 C   0  0  0  0  0  0  0  0  0  0  0  0
    7.0898   -0.6204    1.2657 C   0  0  0  0  0  0  0  0  0  0  0  0
    5.6223   -0.2275    0.9774 C   0  0  0  0  0  0  0  0  0  0  0  0
    3.7042    0.3040   -2.2231 C   0  0  0  0  0  0  0  0  0  0  0  0
    4.5474    0.8413   -3.1191 F   0  0  0  0  0  0  0  0  0  0  0  0
    2.3924    0.0913   -2.6460 C   0  0  0  0  0  0  0  0  0  0  0  0
   -1.0125   -0.2999   -0.0219 N   0  0  0  0  0  0  0  0  0  0  0  0
   -2.1986   -0.5214    0.5263 N   0  0  0  0  0  0  0  0  0  0  0  0
   -6.9064    2.0232    3.9152 H   0  0  0  0  0  0  0  0  0  0  0  0
   -7.3922    0.3397    3.6803 H   0  0  0  0  0  0  0  0  0  0  0  0
   -8.5834    1.6092    3.3719 H   0  0  0  0  0  0  0  0  0  0  0  0
   -8.3020    5.6075    1.9977 H   0  0  0  0  0  0  0  0  0  0  0  0
   -6.6669    4.1277   -1.6642 H   0  0  0  0  0  0  0  0  0  0  0  0
   -6.0830    0.3638    0.7804 H   0  0  0  0  0  0  0  0  0  0  0  0
   -4.8671   -0.3531   -1.8275 H   0  0  0  0  0  0  0  0  0  0  0  0
   -7.2631   -0.8152   -1.9425 H   0  0  0  0  0  0  0  0  0  0  0  0
   -6.2603   -2.2215   -2.2184 H   0  0  0  0  0  0  0  0  0  0  0  0
   -7.4568   -1.6473    0.5493 H   0  0  0  0  0  0  0  0  0  0  0  0
   -8.3928   -2.3883   -0.7346 H   0  0  0  0  0  0  0  0  0  0  0  0
   -6.7594   -4.2362   -0.9609 H   0  0  0  0  0  0  0  0  0  0  0  0
   -7.5555   -4.1203    0.6035 H   0  0  0  0  0  0  0  0  0  0  0  0
   -5.0436   -5.6613    0.1972 H   0  0  0  0  0  0  0  0  0  0  0  0
   -4.2747   -5.0117    1.6669 H   0  0  0  0  0  0  0  0  0  0  0  0
   -5.9790   -5.4201    1.6914 H   0  0  0  0  0  0  0  0  0  0  0  0
   -3.4720   -3.4457    0.2541 H   0  0  0  0  0  0  0  0  0  0  0  0
   -4.4545   -3.4154   -1.1897 H   0  0  0  0  0  0  0  0  0  0  0  0
   -4.4695   -1.2495    0.9830 H   0  0  0  0  0  0  0  0  0  0  0  0
   -2.7193   -1.7306   -2.4545 H   0  0  0  0  0  0  0  0  0  0  0  0
    1.2510   -1.1441    0.2823 H   0  0  0  0  0  0  0  0  0  0  0  0
    6.7050   -1.0331   -1.5540 H   0  0  0  0  0  0  0  0  0  0  0  0
    6.4269    0.5559   -2.2687 H   0  0  0  0  0  0  0  0  0  0  0  0
    7.8377    1.6981   -0.8239 H   0  0  0  0  0  0  0  0  0  0  0  0
    8.6877    0.2281   -1.2835 H   0  0  0  0  0  0  0  0  0  0  0  0
    9.5147   -0.2210    2.1631 H   0  0  0  0  0  0  0  0  0  0  0  0
    9.7000   -0.9473    0.5690 H   0  0  0  0  0  0  0  0  0  0  0  0
    9.3480    2.6890    1.6739 H   0  0  0  0  0  0  0  0  0  0  0  0
   11.1007    4.3820    1.1460 H   0  0  0  0  0  0  0  0  0  0  0  0
   13.1749    3.6234   -0.0277 H   0  0  0  0  0  0  0  0  0  0  0  0
   11.8766   -0.2741   -0.1643 H   0  0  0  0  0  0  0  0  0  0  0  0
    7.2020   -0.7283    2.3510 H   0  0  0  0  0  0  0  0  0  0  0  0
    7.2894   -1.6072    0.8258 H   0  0  0  0  0  0  0  0  0  0  0  0
    5.0141   -1.0910    1.2726 H   0  0  0  0  0  0  0  0  0  0  0  0
    5.3368    0.6169    1.6162 H   0  0  0  0  0  0  0  0  0  0  0  0
    2.1228    0.3359   -3.6700 H   0  0  0  0  0  0  0  0  0  0  0  0
  1  2  1  0
  2  3  1  0
  3  4  2  0
  4  5  1  0
  5  6  2  0
  6  7  1  0
  6  8  1  0
  8  9  2  0
  9 10  1  0
 10 11  2  0
 10 12  1  0
 12 13  1  0
 13 14  1  0
 14 15  1  0
 15 16  1  0
 16 17  1  0
 17 18  1  0
 17 19  1  0
 19 20  1  0
 20 21  1  0
 21 22  1  0
 22 23  2  0
 23 24  1  0
 24 25  2  0
 24 26  1  0
 26 27  2  0
 27 28  1  0
 28 29  2  0
 29 30  1  0
 30 31  1  0
 31 32  1  0
 32 33  1  0
 33 34  1  0
 34 35  1  0
 35 36  2  0
 36 37  1  0
 37 38  2  0
 38 39  1  0
 39 40  2  0
 33 41  1  0
 41 42  1  0
 29 43  1  0
 43 44  1  0
 43 45  2  0
 23 46  1  0
 46 47  2  0
  9  3  1  0
 20 13  1  0
 47 21  1  0
 45 26  1  0
 42 30  1  0
 40 35  1  0
  1 48  1  0
  1 49  1  0
  1 50  1  0
  5 51  1  0
  8 52  1  0
 12 53  1  0
 13 54  1  6
 14 55  1  0
 14 56  1  0
 15 57  1  0
 15 58  1  0
 16 59  1  0
 16 60  1  0
 18 61  1  0
 18 62  1  0
 18 63  1  0
 19 64  1  0
 19 65  1  0
 20 66  1  1
 22 67  1  0
 27 68  1  0
 31 69  1  0
 31 70  1  0
 32 71  1  0
 32 72  1  0
 34 73  1  0
 34 74  1  0
 36 75  1  0
 37 76  1  0
 38 77  1  0
 40 78  1  0
 41 79  1  0
 41 80  1  0
 42 81  1  0
 42 82  1  0
 45 83  1  0
M  END
$$$$
