
     RDKit          3D

 52 55  0  0  0  0  0  0  0  0999 V2000
   -7.5931   -2.3512   -1.0515 C   0  0  0  0  0  0  0  0  0  0  0  0
   -6.3246   -1.8579   -0.6392 O   0  0  0  0  0  0  0  0  0  0  0  0
   -6.2873   -0.6087   -0.0801 C   0  0  0  0  0  0  0  0  0  0  0  0
   -7.3888    0.2314    0.0977 C   0  0  0  0  0  0  0  0  0  0  0  0
   -7.2258    1.4811    0.7015 C   0  0  0  0  0  0  0  0  0  0  0  0
   -5.9635    1.8976    1.1166 C   0  0  0  0  0  0  0  0  0  0  0  0
   -5.8966    3.1206    1.7289 O   0  0  0  0  0  0  0  0  0  0  0  0
   -4.8409    1.0880    0.9084 C   0  0  0  0  0  0  0  0  0  0  0  0
   -3.5095    1.5693    1.3358 C   0  0  0  0  0  0  0  0  0  0  0  0
   -3.4564    2.3299    2.3040 O   0  0  0  0  0  0  0  0  0  0  0  0
   -2.2542    1.2257    0.6251 C   0  0  0  0  0  0  0  0  0  0  0  0
   -2.2049    1.1055   -0.7679 C   0  0  0  0  0  0  0  0  0  0  0  0
   -0.9917    0.8119   -1.3981 C   0  0  0  0  0  0  0  0  0  0  0  0
    0.1791    0.6438   -0.6455 C   0  0  0  0  0  0  0  0  0  0  0  0
    1.4420    0.3370   -1.3726 C   0  0  0  0  0  0  0  0  0  0  0  0
    1.5826    0.6964   -2.5359 O   0  0  0  0  0  0  0  0  0  0  0  0
    2.3986   -0.3770   -0.6822 N   0  0  0  0  0  0  0  0  0  0  0  0
    3.7021   -0.6701   -1.2756 C   0  0  2  0  0  0  0  0  0  0  0  0
    4.3678   -1.8608   -0.5589 C   0  0  0  0  0  0  0  0  0  0  0  0
    5.3810   -1.3996    0.4868 C   0  0  0  0  0  0  0  0  0  0  0  0
    6.4475   -0.5248   -0.1537 C   0  0  0  0  0  0  0  0  0  0  0  0
    7.8798   -1.0098   -0.1304 C   0  0  0  0  0  0  0  0  0  0  0  0
    7.4597    0.1122    0.7689 C   0  0  0  0  0  0  0  0  0  0  0  0
    6.0295    0.2665   -1.3339 N   0  0  0  0  0  0  0  0  0  0  0  0
    4.6005    0.5933   -1.2760 C   0  0  0  0  0  0  0  0  0  0  0  0
    0.1349    0.8044    0.7451 C   0  0  0  0  0  0  0  0  0  0  0  0
   -1.0788    1.0966    1.3764 C   0  0  0  0  0  0  0  0  0  0  0  0
   -5.0206   -0.1723    0.3360 C   0  0  0  0  0  0  0  0  0  0  0  0
   -3.9747   -1.0037    0.1965 F   0  0  0  0  0  0  0  0  0  0  0  0
   -7.4444   -3.3566   -1.4582 H   0  0  0  0  0  0  0  0  0  0  0  0
   -8.0184   -1.7294   -1.8466 H   0  0  0  0  0  0  0  0  0  0  0  0
   -8.2800   -2.4334   -0.2024 H   0  0  0  0  0  0  0  0  0  0  0  0
   -8.3890   -0.0574   -0.2092 H   0  0  0  0  0  0  0  0  0  0  0  0
   -8.0859    2.1285    0.8584 H   0  0  0  0  0  0  0  0  0  0  0  0
   -5.0163    3.1916    2.1644 H   0  0  0  0  0  0  0  0  0  0  0  0
   -3.0913    1.2471   -1.3807 H   0  0  0  0  0  0  0  0  0  0  0  0
   -0.9593    0.7168   -2.4826 H   0  0  0  0  0  0  0  0  0  0  0  0
    2.2287   -0.6667    0.2700 H   0  0  0  0  0  0  0  0  0  0  0  0
    3.5199   -0.9705   -2.3159 H   0  0  0  0  0  0  0  0  0  0  0  0
    3.6212   -2.5205   -0.1008 H   0  0  0  0  0  0  0  0  0  0  0  0
    4.8991   -2.4632   -1.3078 H   0  0  0  0  0  0  0  0  0  0  0  0
    4.8670   -0.8309    1.2724 H   0  0  0  0  0  0  0  0  0  0  0  0
    5.8309   -2.2757    0.9683 H   0  0  0  0  0  0  0  0  0  0  0  0
    8.1040   -1.9668    0.3259 H   0  0  0  0  0  0  0  0  0  0  0  0
    8.5247   -0.7658   -0.9678 H   0  0  0  0  0  0  0  0  0  0  0  0
    7.8086    1.1115    0.5323 H   0  0  0  0  0  0  0  0  0  0  0  0
    7.3922   -0.0865    1.8319 H   0  0  0  0  0  0  0  0  0  0  0  0
    6.2139   -0.2537   -2.1925 H   0  0  0  0  0  0  0  0  0  0  0  0
    4.4093    1.2039   -0.3834 H   0  0  0  0  0  0  0  0  0  0  0  0
    4.3423    1.2276   -2.1320 H   0  0  0  0  0  0  0  0  0  0  0  0
    1.0334    0.7414    1.3514 H   0  0  0  0  0  0  0  0  0  0  0  0
   -1.1043    1.2336    2.4566 H   0  0  0  0  0  0  0  0  0  0  0  0
  1  2  1  0
  2  3  1  0
  3  4  2  0
  4  5  1  0
  5  6  2  0
  6  7  1  0
  6  8  1  0
  8  9  1  0
  9 10  2  0
  9 11  1  0
 11 12  2  0
 12 13  1  0
 13 14  2  0
 14 15  1  0
 15 16  2  0
 15 17  1  0
 17 18  1  0
 18 19  1  0
 19 20  1  0
 20 21  1  0
 21 22  1  0
 22 23  1  0
 21 24  1  0
 24 25  1  0
 14 26  1  0
 26 27  2  0
  8 28  2  0
 28 29  1  0
 28  3  1  0
 27 11  1  0
 25 18  1  0
 23 21  1  0
  1 30  1  0
  1 31  1  0
  1 32  1  0
  4 33  1  0
  5 34  1  0
  7 35  1  0
 12 36  1  0
 13 37  1  0
 17 38  1  0
 18 39  1  6
 19 40  1  0
 19 41  1  0
 20 42  1  0
 20 43  1  0
 22 44  1  0
 22 45  1  0
 23 46  1  0
 23 47  1  0
 24 48  1  0
 25 49  1  0
 25 50  1  0
 26 51  1  0
 27 52  1  0
M  END
$$$$
