
     RDKit          3D

 29 31  0  0  0  0  0  0  0  0999 V2000
    5.9513    0.8443    1.0209 N   0  0  0  0  0  0  0  0  0  0  0  0
    4.8994    0.2330    0.3473 C   0  0  0  0  0  0  0  0  0  0  0  0
    3.6076    0.3167    0.8322 C   0  0  0  0  0  0  0  0  0  0  0  0
    2.5817   -0.2790    0.0978 C   0  0  0  0  0  0  0  0  0  0  0  0
    1.1944   -0.1950    0.6272 C   0  0  0  0  0  0  0  0  0  0  0  0
    1.0458   -0.2166    1.8421 O   0  0  0  0  0  0  0  0  0  0  0  0
    0.2209   -0.0702   -0.3354 N   0  0  0  0  0  0  0  0  0  0  0  0
   -1.1348   -0.0009   -0.1356 C   0  0  0  0  0  0  0  0  0  0  0  0
   -1.9462    0.1865   -1.1486 N   0  0  0  0  0  0  0  0  0  0  0  0
   -3.2567    0.2120   -0.6985 C   0  0  0  0  0  0  0  0  0  0  0  0
   -4.4008    0.4003   -1.4988 C   0  0  0  0  0  0  0  0  0  0  0  0
   -5.6611    0.4004   -0.8977 C   0  0  0  0  0  0  0  0  0  0  0  0
   -7.0621    0.6299   -1.8723 Cl  0  0  0  0  0  0  0  0  0  0  0  0
   -5.8028    0.2177    0.4745 C   0  0  0  0  0  0  0  0  0  0  0  0
   -4.6805    0.0286    1.2873 C   0  0  0  0  0  0  0  0  0  0  0  0
   -3.4156    0.0297    0.6771 C   0  0  0  0  0  0  0  0  0  0  0  0
   -1.8634   -0.1758    1.3893 S   0  0  0  0  0  0  0  0  0  0  0  0
    2.8795   -0.9565   -1.0828 C   0  0  0  0  0  0  0  0  0  0  0  0
    4.2006   -0.9798   -1.4860 C   0  0  0  0  0  0  0  0  0  0  0  0
    5.2052   -0.3921   -0.8015 N   0  0  0  0  0  0  0  0  0  0  0  0
    5.9960    0.5579    1.9921 H   0  0  0  0  0  0  0  0  0  0  0  0
    6.8053    0.6158    0.5180 H   0  0  0  0  0  0  0  0  0  0  0  0
    3.3972    0.8450    1.7566 H   0  0  0  0  0  0  0  0  0  0  0  0
    0.4747    0.0655   -1.3033 H   0  0  0  0  0  0  0  0  0  0  0  0
   -4.2882    0.5429   -2.5683 H   0  0  0  0  0  0  0  0  0  0  0  0
   -6.7921    0.2206    0.9274 H   0  0  0  0  0  0  0  0  0  0  0  0
   -4.7851   -0.1144    2.3589 H   0  0  0  0  0  0  0  0  0  0  0  0
    2.1275   -1.4750   -1.6654 H   0  0  0  0  0  0  0  0  0  0  0  0
    4.5021   -1.4912   -2.3963 H   0  0  0  0  0  0  0  0  0  0  0  0
  1  2  1  0
  2  3  2  0
  3  4  1  0
  4  5  1  0
  5  6  2  0
  5  7  1  0
  7  8  1  0
  8  9  2  0
  9 10  1  0
 10 11  2  0
 11 12  1  0
 12 13  1  0
 12 14  2  0
 14 15  1  0
 15 16  2  0
 16 17  1  0
  4 18  2  0
 18 19  1  0
 19 20  2  0
 20  2  1  0
 17  8  1  0
 16 10  1  0
  1 21  1  0
  1 22  1  0
  3 23  1  0
  7 24  1  0
 11 25  1  0
 14 26  1  0
 15 27  1  0
 18 28  1  0
 19 29  1  0
M  END
$$$$
