
     RDKit          3D

 32 34  0  0  0  0  0  0  0  0999 V2000
    5.8721    1.4802   -0.4348 C   0  0  0  0  0  0  0  0  0  0  0  0
    4.4499    1.4332   -0.1300 N   0  0  0  0  0  0  0  0  0  0  0  0
    3.8479    0.1874   -0.3798 C   0  0  0  0  0  0  0  0  0  0  0  0
    2.4942    0.0517   -0.0937 C   0  0  0  0  0  0  0  0  0  0  0  0
    1.8632   -1.1642   -0.3649 C   0  0  0  0  0  0  0  0  0  0  0  0
    0.4180   -1.3785   -0.0849 C   0  0  0  0  0  0  0  0  0  0  0  0
    0.0676   -2.4979    0.2662 O   0  0  0  0  0  0  0  0  0  0  0  0
   -0.3772   -0.2766   -0.2928 N   0  0  0  0  0  0  0  0  0  0  0  0
   -1.7308   -0.1824   -0.0877 C   0  0  0  0  0  0  0  0  0  0  0  0
   -2.3731    0.9181   -0.3964 N   0  0  0  0  0  0  0  0  0  0  0  0
   -3.7168    0.7728   -0.0904 C   0  0  0  0  0  0  0  0  0  0  0  0
   -4.7216    1.7415   -0.2881 C   0  0  0  0  0  0  0  0  0  0  0  0
   -6.0433    1.4557    0.0705 C   0  0  0  0  0  0  0  0  0  0  0  0
   -6.3731    0.2213    0.6218 C   0  0  0  0  0  0  0  0  0  0  0  0
   -5.3949   -0.7564    0.8286 C   0  0  0  0  0  0  0  0  0  0  0  0
   -4.0716   -0.4584    0.4645 C   0  0  0  0  0  0  0  0  0  0  0  0
   -2.6598   -1.4328    0.5911 S   0  0  0  0  0  0  0  0  0  0  0  0
    2.6007   -2.2216   -0.8875 C   0  0  0  0  0  0  0  0  0  0  0  0
    3.9345   -1.9984   -1.1521 C   0  0  0  0  0  0  0  0  0  0  0  0
    4.5575   -0.8219   -0.9215 N   0  0  0  0  0  0  0  0  0  0  0  0
    6.4396    0.7704    0.1773 H   0  0  0  0  0  0  0  0  0  0  0  0
    6.0624    1.2888   -1.4965 H   0  0  0  0  0  0  0  0  0  0  0  0
    6.2490    2.4837   -0.2122 H   0  0  0  0  0  0  0  0  0  0  0  0
    4.2672    1.7056    0.8318 H   0  0  0  0  0  0  0  0  0  0  0  0
    1.9574    0.8852    0.3447 H   0  0  0  0  0  0  0  0  0  0  0  0
    0.0066    0.5594   -0.7101 H   0  0  0  0  0  0  0  0  0  0  0  0
   -4.4613    2.7033   -0.7186 H   0  0  0  0  0  0  0  0  0  0  0  0
   -6.8162    2.2051   -0.0840 H   0  0  0  0  0  0  0  0  0  0  0  0
   -7.4051    0.0117    0.8961 H   0  0  0  0  0  0  0  0  0  0  0  0
   -5.6523   -1.7197    1.2587 H   0  0  0  0  0  0  0  0  0  0  0  0
    2.1472   -3.1863   -1.0895 H   0  0  0  0  0  0  0  0  0  0  0  0
    4.5622   -2.7797   -1.5713 H   0  0  0  0  0  0  0  0  0  0  0  0
  1  2  1  0
  2  3  1  0
  3  4  2  0
  4  5  1  0
  5  6  1  0
  6  7  2  0
  6  8  1  0
  8  9  1  0
  9 10  2  0
 10 11  1  0
 11 12  2  0
 12 13  1  0
 13 14  2  0
 14 15  1  0
 15 16  2  0
 16 17  1  0
  5 18  2  0
 18 19  1  0
 19 20  2  0
 20  3  1  0
 17  9  1  0
 16 11  1  0
  1 21  1  0
  1 22  1  0
  1 23  1  0
  2 24  1  0
  4 25  1  0
  8 26  1  0
 12 27  1  0
 13 28  1  0
 14 29  1  0
 15 30  1  0
 18 31  1  0
 19 32  1  0
M  END
$$$$
