
     RDKit          3D

 49 51  0  0  0  0  0  0  0  0999 V2000
   -6.7341    1.3549    2.4111 C   0  0  0  0  0  0  0  0  0  0  0  0
   -5.4539    0.8060    2.1254 O   0  0  0  0  0  0  0  0  0  0  0  0
   -5.3849   -0.1527    1.1515 C   0  0  0  0  0  0  0  0  0  0  0  0
   -6.4549   -0.5998    0.3771 C   0  0  0  0  0  0  0  0  0  0  0  0
   -6.2591   -1.5977   -0.5864 C   0  0  0  0  0  0  0  0  0  0  0  0
   -5.0043   -2.1890   -0.7750 C   0  0  0  0  0  0  0  0  0  0  0  0
   -4.8366   -3.0993   -1.8362 N   0  0  0  0  0  0  0  0  0  0  0  0
   -3.9143   -1.6783   -0.0482 C   0  0  0  0  0  0  0  0  0  0  0  0
   -2.5575   -2.2258   -0.2670 C   0  0  0  0  0  0  0  0  0  0  0  0
   -2.4168   -3.4457   -0.3489 O   0  0  0  0  0  0  0  0  0  0  0  0
   -1.3719   -1.3420   -0.4197 C   0  0  0  0  0  0  0  0  0  0  0  0
   -1.4740   -0.0531   -0.9557 C   0  0  0  0  0  0  0  0  0  0  0  0
   -0.3281    0.7361   -1.0970 C   0  0  0  0  0  0  0  0  0  0  0  0
    0.9248    0.2449   -0.7067 C   0  0  0  0  0  0  0  0  0  0  0  0
    2.1140    1.1247   -0.8787 C   0  0  0  0  0  0  0  0  0  0  0  0
    2.1097    2.0051   -1.7312 O   0  0  0  0  0  0  0  0  0  0  0  0
    3.1675    0.9073   -0.0140 N   0  0  0  0  0  0  0  0  0  0  0  0
    4.3532    1.7666   -0.0318 C   0  0  2  0  0  0  0  0  0  0  0  0
    5.1927    1.4999   -1.2989 C   0  0  0  0  0  0  0  0  0  0  0  0
    6.6852    1.4517   -0.9891 C   0  0  0  0  0  0  0  0  0  0  0  0
    6.9968    0.4226    0.1035 C   0  0  0  0  0  0  0  0  0  0  0  0
    6.0021    0.3448    1.1840 N   0  0  0  0  0  0  0  0  0  0  0  0
    5.1946    1.5695    1.2509 C   0  0  0  0  0  0  0  0  0  0  0  0
    1.0308   -1.0575   -0.2030 C   0  0  0  0  0  0  0  0  0  0  0  0
   -0.1149   -1.8470   -0.0620 C   0  0  0  0  0  0  0  0  0  0  0  0
   -4.1169   -0.6992    0.9284 C   0  0  0  0  0  0  0  0  0  0  0  0
   -3.0837   -0.2735    1.6749 F   0  0  0  0  0  0  0  0  0  0  0  0
   -6.6145    2.0767    3.2248 H   0  0  0  0  0  0  0  0  0  0  0  0
   -7.4293    0.5805    2.7519 H   0  0  0  0  0  0  0  0  0  0  0  0
   -7.1337    1.8924    1.5450 H   0  0  0  0  0  0  0  0  0  0  0  0
   -7.4545   -0.1918    0.4888 H   0  0  0  0  0  0  0  0  0  0  0  0
   -7.1046   -1.9137   -1.1944 H   0  0  0  0  0  0  0  0  0  0  0  0
   -4.0082   -3.6896   -1.6931 H   0  0  0  0  0  0  0  0  0  0  0  0
   -5.6568   -3.6652   -2.0305 H   0  0  0  0  0  0  0  0  0  0  0  0
   -2.4285    0.3501   -1.2834 H   0  0  0  0  0  0  0  0  0  0  0  0
   -0.4136    1.7376   -1.5158 H   0  0  0  0  0  0  0  0  0  0  0  0
    3.0178    0.3254    0.7993 H   0  0  0  0  0  0  0  0  0  0  0  0
    3.9967    2.8043   -0.0493 H   0  0  0  0  0  0  0  0  0  0  0  0
    4.9022    0.5482   -1.7633 H   0  0  0  0  0  0  0  0  0  0  0  0
    4.9933    2.2784   -2.0449 H   0  0  0  0  0  0  0  0  0  0  0  0
    7.0206    2.4462   -0.6687 H   0  0  0  0  0  0  0  0  0  0  0  0
    7.2492    1.2086   -1.8968 H   0  0  0  0  0  0  0  0  0  0  0  0
    7.0882   -0.5721   -0.3490 H   0  0  0  0  0  0  0  0  0  0  0  0
    7.9759    0.6517    0.5393 H   0  0  0  0  0  0  0  0  0  0  0  0
    5.3794   -0.4377    0.9806 H   0  0  0  0  0  0  0  0  0  0  0  0
    5.8480    2.4346    1.4199 H   0  0  0  0  0  0  0  0  0  0  0  0
    4.5374    1.5098    2.1264 H   0  0  0  0  0  0  0  0  0  0  0  0
    1.9948   -1.4859    0.0554 H   0  0  0  0  0  0  0  0  0  0  0  0
   -0.0252   -2.8620    0.3220 H   0  0  0  0  0  0  0  0  0  0  0  0
  1  2  1  0
  2  3  1  0
  3  4  2  0
  4  5  1  0
  5  6  2  0
  6  7  1  0
  6  8  1  0
  8  9  1  0
  9 10  2  0
  9 11  1  0
 11 12  2  0
 12 13  1  0
 13 14  2  0
 14 15  1  0
 15 16  2  0
 15 17  1  0
 17 18  1  0
 18 19  1  0
 19 20  1  0
 20 21  1  0
 21 22  1  0
 22 23  1  0
 14 24  1  0
 24 25  2  0
  8 26  2  0
 26 27  1  0
 26  3  1  0
 25 11  1  0
 23 18  1  0
  1 28  1  0
  1 29  1  0
  1 30  1  0
  4 31  1  0
  5 32  1  0
  7 33  1  0
  7 34  1  0
 12 35  1  0
 13 36  1  0
 17 37  1  0
 18 38  1  6
 19 39  1  0
 19 40  1  0
 20 41  1  0
 20 42  1  0
 21 43  1  0
 21 44  1  0
 22 45  1  0
 23 46  1  0
 23 47  1  0
 24 48  1  0
 25 49  1  0
M  END
$$$$
