
     RDKit          3D

 37 38  0  0  0  0  0  0  0  0999 V2000
   -2.9287    0.9185    2.6780 C   0  0  0  0  0  0  0  0  0  0  0  0
   -2.8667   -0.0422    1.6255 O   0  0  0  0  0  0  0  0  0  0  0  0
   -2.2161    0.4023    0.5248 C   0  0  0  0  0  0  0  0  0  0  0  0
   -1.6666    1.4825    0.3637 O   0  0  0  0  0  0  0  0  0  0  0  0
   -2.1817   -0.6681   -0.4809 C   0  0  0  0  0  0  0  0  0  0  0  0
   -3.3485   -0.9721   -1.1958 C   0  0  0  0  0  0  0  0  0  0  0  0
   -4.5049   -0.2877   -0.9413 O   0  0  0  0  0  0  0  0  0  0  0  0
   -3.3338   -1.9594   -2.1787 C   0  0  0  0  0  0  0  0  0  0  0  0
   -2.1480   -2.6370   -2.4545 C   0  0  0  0  0  0  0  0  0  0  0  0
   -0.9814   -2.3292   -1.7487 C   0  0  0  0  0  0  0  0  0  0  0  0
   -0.9712   -1.3380   -0.7488 C   0  0  0  0  0  0  0  0  0  0  0  0
    0.2821   -1.0772   -0.0142 C   0  0  0  0  0  0  0  0  0  0  0  0
    0.7498   -2.0335    0.9032 C   0  0  0  0  0  0  0  0  0  0  0  0
    1.9469   -1.8431    1.5936 C   0  0  0  0  0  0  0  0  0  0  0  0
    2.7073   -0.6956    1.3696 C   0  0  0  0  0  0  0  0  0  0  0  0
    2.2845    0.2760    0.4532 C   0  0  0  0  0  0  0  0  0  0  0  0
    3.1285    1.4712    0.2916 C   0  0  0  0  0  0  0  0  0  0  0  0
    3.4449    1.9961   -0.9021 C   0  0  0  0  0  0  0  0  0  0  0  0
    4.2984    3.1776   -1.0719 C   0  0  0  0  0  0  0  0  0  0  0  0
    4.6042    3.6615   -2.1473 O   0  0  0  0  0  0  0  0  0  0  0  0
    4.7428    3.7025    0.0811 O   0  0  0  0  0  0  0  0  0  0  0  0
    1.0608    0.0813   -0.2126 C   0  0  0  0  0  0  0  0  0  0  0  0
    0.6058    1.0614   -1.0615 O   0  0  0  0  0  0  0  0  0  0  0  0
   -1.9222    1.1658    3.0298 H   0  0  0  0  0  0  0  0  0  0  0  0
   -3.4870    0.4771    3.5082 H   0  0  0  0  0  0  0  0  0  0  0  0
   -3.4554    1.8190    2.3465 H   0  0  0  0  0  0  0  0  0  0  0  0
   -5.2064   -0.6062   -1.5336 H   0  0  0  0  0  0  0  0  0  0  0  0
   -4.2276   -2.2079   -2.7433 H   0  0  0  0  0  0  0  0  0  0  0  0
   -2.1253   -3.4040   -3.2255 H   0  0  0  0  0  0  0  0  0  0  0  0
   -0.0641   -2.8660   -1.9887 H   0  0  0  0  0  0  0  0  0  0  0  0
    0.1753   -2.9399    1.0873 H   0  0  0  0  0  0  0  0  0  0  0  0
    2.2904   -2.5918    2.3031 H   0  0  0  0  0  0  0  0  0  0  0  0
    3.6413   -0.5685    1.9135 H   0  0  0  0  0  0  0  0  0  0  0  0
    3.5155    1.9037    1.2108 H   0  0  0  0  0  0  0  0  0  0  0  0
    3.0788    1.5689   -1.8296 H   0  0  0  0  0  0  0  0  0  0  0  0
    5.2770    4.4693   -0.2110 H   0  0  0  0  0  0  0  0  0  0  0  0
   -0.1987    1.4326   -0.6339 H   0  0  0  0  0  0  0  0  0  0  0  0
  1  2  1  0
  2  3  1  0
  3  4  2  0
  3  5  1  0
  5  6  2  0
  6  7  1  0
  6  8  1  0
  8  9  2  0
  9 10  1  0
 10 11  2  0
 11 12  1  0
 12 13  2  0
 13 14  1  0
 14 15  2  0
 15 16  1  0
 16 17  1  0
 17 18  2  0
 18 19  1  0
 19 20  2  0
 19 21  1  0
 16 22  2  0
 22 23  1  0
 11  5  1  0
 22 12  1  0
  1 24  1  0
  1 25  1  0
  1 26  1  0
  7 27  1  0
  8 28  1  0
  9 29  1  0
 10 30  1  0
 13 31  1  0
 14 32  1  0
 15 33  1  0
 17 34  1  0
 18 35  1  0
 21 36  1  0
 23 37  1  0
M  END
$$$$
