
     RDKit          3D

 33 35  0  0  0  0  0  0  0  0999 V2000
   -2.3375    2.4649    1.3636 N   0  0  0  0  0  0  0  0  0  0  0  0
   -1.2667    1.7675    0.2825 S   0  0  0  0  0  4  0  0  0  0  0  0
   -0.3502    0.7228    1.1969 C   0  0  0  0  0  0  0  0  0  0  0  0
    0.5770    1.1985    2.1828 N   0  0  0  0  0  0  0  0  0  0  0  0
    1.9819    0.3169    2.3855 S   0  0  0  0  0  0  0  0  0  0  0  0
    1.6809   -0.8636    3.1698 O   0  0  0  0  0  0  0  0  0  0  0  0
    2.9864    1.2535    2.8500 O   0  0  0  0  0  0  0  0  0  0  0  0
    2.4821   -0.1997    0.7755 C   0  0  0  0  0  0  0  0  0  0  0  0
    2.6340   -1.5574    0.4787 C   0  0  0  0  0  0  0  0  0  0  0  0
    3.0430   -1.9380   -0.8007 C   0  0  0  0  0  0  0  0  0  0  0  0
    3.3002   -0.9678   -1.7721 C   0  0  0  0  0  0  0  0  0  0  0  0
    3.1460    0.3856   -1.4671 C   0  0  0  0  0  0  0  0  0  0  0  0
    2.7378    0.7641   -0.1913 C   0  0  0  0  0  0  0  0  0  0  0  0
    2.5651    2.0678    0.0684 F   0  0  0  0  0  0  0  0  0  0  0  0
   -0.6070   -0.5427    0.9922 N   0  0  0  0  0  0  0  0  0  0  0  0
   -1.6301   -0.6691    0.0478 C   0  0  0  0  0  0  0  0  0  0  0  0
   -2.1793   -1.8794   -0.4199 C   0  0  0  0  0  0  0  0  0  0  0  0
   -3.2140   -1.8537   -1.3607 C   0  0  0  0  0  0  0  0  0  0  0  0
   -3.7047   -0.6418   -1.8391 C   0  0  0  0  0  0  0  0  0  0  0  0
   -3.1777    0.5750   -1.3936 C   0  0  0  0  0  0  0  0  0  0  0  0
   -2.1423    0.5410   -0.4488 C   0  0  0  0  0  0  0  0  0  0  0  0
   -3.2729    2.5859    0.9732 H   0  0  0  0  0  0  0  0  0  0  0  0
   -2.4752    1.8947    2.2029 H   0  0  0  0  0  0  0  0  0  0  0  0
   -0.5542    2.5379   -0.5755 H   0  0  0  0  0  0  0  0  0  0  0  0
    0.7295    2.2034    2.1723 H   0  0  0  0  0  0  0  0  0  0  0  0
    2.4294   -2.3171    1.2305 H   0  0  0  0  0  0  0  0  0  0  0  0
    3.1601   -2.9928   -1.0404 H   0  0  0  0  0  0  0  0  0  0  0  0
    3.6187   -1.2682   -2.7678 H   0  0  0  0  0  0  0  0  0  0  0  0
    3.3396    1.1460   -2.2177 H   0  0  0  0  0  0  0  0  0  0  0  0
   -1.7968   -2.8220   -0.0410 H   0  0  0  0  0  0  0  0  0  0  0  0
   -3.6369   -2.7898   -1.7184 H   0  0  0  0  0  0  0  0  0  0  0  0
   -4.5087   -0.6399   -2.5726 H   0  0  0  0  0  0  0  0  0  0  0  0
   -3.5575    1.5175   -1.7754 H   0  0  0  0  0  0  0  0  0  0  0  0
  1  2  1  0
  2  3  1  0
  3  4  1  0
  4  5  1  0
  5  6  2  0
  5  7  2  0
  5  8  1  0
  8  9  2  0
  9 10  1  0
 10 11  2  0
 11 12  1  0
 12 13  2  0
 13 14  1  0
  3 15  2  0
 15 16  1  0
 16 17  2  0
 17 18  1  0
 18 19  2  0
 19 20  1  0
 20 21  2  0
 21  2  1  0
 13  8  1  0
 21 16  1  0
  1 22  1  0
  1 23  1  0
  2 24  1  0
  4 25  1  0
  9 26  1  0
 10 27  1  0
 11 28  1  0
 12 29  1  0
 17 30  1  0
 18 31  1  0
 19 32  1  0
 20 33  1  0
M  END
$$$$
