
     RDKit          3D

 48 51  0  0  0  0  0  0  0  0999 V2000
   -5.7149   -1.9132   -1.0300 C   0  0  0  0  0  0  0  0  0  0  0  0
   -5.4772   -0.7870   -0.0193 C   0  0  0  0  0  0  0  0  0  0  0  0
   -6.4655    0.3738   -0.3091 C   0  0  0  0  0  0  0  0  0  0  0  0
   -6.2665    1.5665    0.5301 N   0  0  0  0  0  0  0  0  0  0  0  0
   -4.8389    1.9014    0.6849 C   0  0  0  0  0  0  0  0  0  0  0  0
   -3.8694    1.1075   -0.2123 C   0  0  0  0  0  0  0  0  0  0  0  0
   -4.0705   -0.3390   -0.0453 N   0  0  0  0  0  0  0  0  0  0  0  0
   -3.0963   -1.1956    0.4682 C   0  0  0  0  0  0  0  0  0  0  0  0
   -3.3588   -2.2507    1.0412 O   0  0  0  0  0  0  0  0  0  0  0  0
   -1.6668   -0.8426    0.2995 C   0  0  0  0  0  0  0  0  0  0  0  0
   -1.1643   -0.4576   -0.9474 C   0  0  0  0  0  0  0  0  0  0  0  0
    0.1929   -0.1517   -1.0860 C   0  0  0  0  0  0  0  0  0  0  0  0
    1.0629   -0.2542    0.0092 C   0  0  0  0  0  0  0  0  0  0  0  0
    2.4892    0.0872   -0.0883 C   0  0  0  0  0  0  0  0  0  0  0  0
    3.2617   -0.2058   -1.1479 C   0  0  0  0  0  0  0  0  0  0  0  0
    4.6485    0.1189   -1.3070 C   0  0  0  0  0  0  0  0  0  0  0  0
    5.1605    0.3732   -2.5203 N   0  0  0  0  0  0  0  0  0  0  0  0
    6.4508    0.6483   -2.2821 N   0  0  0  0  0  0  0  0  0  0  0  0
    6.8164    0.5523   -0.9688 C   0  0  0  0  0  0  0  0  0  0  0  0
    8.0500    0.7423   -0.3369 C   0  0  0  0  0  0  0  0  0  0  0  0
    8.0966    0.5421    1.0455 C   0  0  0  0  0  0  0  0  0  0  0  0
    6.9587    0.1628    1.7550 C   0  0  0  0  0  0  0  0  0  0  0  0
    5.7335   -0.0201    1.1005 C   0  0  0  0  0  0  0  0  0  0  0  0
    5.6550    0.1906   -0.2922 C   0  0  0  0  0  0  0  0  0  0  0  0
    0.5481   -0.6515    1.2515 C   0  0  0  0  0  0  0  0  0  0  0  0
   -0.8079   -0.9582    1.3951 C   0  0  0  0  0  0  0  0  0  0  0  0
   -6.7605   -2.2381   -1.0119 H   0  0  0  0  0  0  0  0  0  0  0  0
   -5.4761   -1.5839   -2.0475 H   0  0  0  0  0  0  0  0  0  0  0  0
   -5.0932   -2.7878   -0.8156 H   0  0  0  0  0  0  0  0  0  0  0  0
   -5.6793   -1.1702    0.9897 H   0  0  0  0  0  0  0  0  0  0  0  0
   -7.4964    0.0243   -0.1776 H   0  0  0  0  0  0  0  0  0  0  0  0
   -6.3814    0.6815   -1.3596 H   0  0  0  0  0  0  0  0  0  0  0  0
   -6.6524    1.3846    1.4575 H   0  0  0  0  0  0  0  0  0  0  0  0
   -4.5619    1.7243    1.7320 H   0  0  0  0  0  0  0  0  0  0  0  0
   -4.7113    2.9735    0.5010 H   0  0  0  0  0  0  0  0  0  0  0  0
   -2.8487    1.4044    0.0399 H   0  0  0  0  0  0  0  0  0  0  0  0
   -4.0391    1.3441   -1.2690 H   0  0  0  0  0  0  0  0  0  0  0  0
   -1.8204   -0.4005   -1.8121 H   0  0  0  0  0  0  0  0  0  0  0  0
    0.5603    0.1693   -2.0585 H   0  0  0  0  0  0  0  0  0  0  0  0
    2.8997    0.6143    0.7681 H   0  0  0  0  0  0  0  0  0  0  0  0
    2.8198   -0.7076   -2.0056 H   0  0  0  0  0  0  0  0  0  0  0  0
    7.0418    0.8879   -3.0692 H   0  0  0  0  0  0  0  0  0  0  0  0
    8.9387    1.0271   -0.8904 H   0  0  0  0  0  0  0  0  0  0  0  0
    9.0379    0.6770    1.5742 H   0  0  0  0  0  0  0  0  0  0  0  0
    7.0218    0.0016    2.8288 H   0  0  0  0  0  0  0  0  0  0  0  0
    4.8637   -0.3332    1.6690 H   0  0  0  0  0  0  0  0  0  0  0  0
    1.2017   -0.7427    2.1165 H   0  0  0  0  0  0  0  0  0  0  0  0
   -1.1924   -1.2895    2.3571 H   0  0  0  0  0  0  0  0  0  0  0  0
  1  2  1  0
  2  3  1  0
  3  4  1  0
  4  5  1  0
  5  6  1  0
  6  7  1  0
  7  8  1  0
  8  9  2  0
  8 10  1  0
 10 11  2  0
 11 12  1  0
 12 13  2  0
 13 14  1  0
 14 15  2  0
 15 16  1  0
 16 17  2  0
 17 18  1  0
 18 19  1  0
 19 20  2  0
 20 21  1  0
 21 22  2  0
 22 23  1  0
 23 24  2  0
 13 25  1  0
 25 26  2  0
  7  2  1  0
 26 10  1  0
 24 16  1  0
 24 19  1  0
  1 27  1  0
  1 28  1  0
  1 29  1  0
  2 30  1  0
  3 31  1  0
  3 32  1  0
  4 33  1  0
  5 34  1  0
  5 35  1  0
  6 36  1  0
  6 37  1  0
 11 38  1  0
 12 39  1  0
 14 40  1  0
 15 41  1  0
 18 42  1  0
 20 43  1  0
 21 44  1  0
 22 45  1  0
 23 46  1  0
 25 47  1  0
 26 48  1  0
M  END
$$$$
