
     RDKit          3D

 47 51  0  0  0  0  0  0  0  0999 V2000
    5.8161   -2.5546    0.5918 C   0  0  0  0  0  0  0  0  0  0  0  0
    4.9971   -1.6230   -0.2521 C   0  0  0  0  0  0  0  0  0  0  0  0
    5.5571   -1.0127   -1.3790 C   0  0  0  0  0  0  0  0  0  0  0  0
    4.8077   -0.1157   -2.1376 C   0  0  0  0  0  0  0  0  0  0  0  0
    3.4940    0.1829   -1.7710 C   0  0  0  0  0  0  0  0  0  0  0  0
    2.9099   -0.4090   -0.6415 C   0  0  0  0  0  0  0  0  0  0  0  0
    1.5290   -0.0851   -0.2701 C   0  0  0  0  0  0  0  0  0  0  0  0
    0.9242    1.0343   -0.7255 N   0  0  0  0  0  0  0  0  0  0  0  0
   -0.3084    1.0773   -0.1200 N   0  0  0  0  0  0  0  0  0  0  0  0
   -1.0782    2.2729   -0.1528 C   0  0  0  0  0  0  0  0  0  0  0  0
   -2.1546    2.4723    0.7201 C   0  0  0  0  0  0  0  0  0  0  0  0
   -2.8910    3.6590    0.6672 C   0  0  0  0  0  0  0  0  0  0  0  0
   -2.5506    4.6567   -0.2445 C   0  0  0  0  0  0  0  0  0  0  0  0
   -1.4662    4.4760   -1.1003 C   0  0  0  0  0  0  0  0  0  0  0  0
   -0.7269    3.2920   -1.0523 C   0  0  0  0  0  0  0  0  0  0  0  0
   -0.5449   -0.1241    0.5010 C   0  0  0  0  0  0  0  0  0  0  0  0
    0.6284   -0.8147    0.5171 C   0  0  0  0  0  0  0  0  0  0  0  0
    0.4862   -2.0671    1.2763 C   0  0  0  0  0  0  0  0  0  0  0  0
   -1.0320   -2.0135    1.7018 C   0  0  0  0  0  0  0  0  0  0  0  0
   -1.5804   -0.7396    1.1248 N   0  0  0  0  0  0  0  0  0  0  0  0
   -2.9143   -0.8787    0.6941 C   0  0  0  0  0  0  0  0  0  0  0  0
   -3.3495   -0.4184   -0.5501 C   0  0  0  0  0  0  0  0  0  0  0  0
   -4.6858   -0.5669   -0.9224 C   0  0  0  0  0  0  0  0  0  0  0  0
   -5.5697   -1.1778   -0.0484 C   0  0  0  0  0  0  0  0  0  0  0  0
   -5.0722   -1.6209    1.1609 C   0  0  0  0  0  0  0  0  0  0  0  0
   -3.7808   -1.4901    1.5395 N   0  0  0  0  0  0  0  0  0  0  0  0
    3.6796   -1.3051    0.1163 C   0  0  0  0  0  0  0  0  0  0  0  0
    5.1835   -3.3195    1.0543 H   0  0  0  0  0  0  0  0  0  0  0  0
    6.3277   -1.9935    1.3798 H   0  0  0  0  0  0  0  0  0  0  0  0
    6.5645   -3.0760   -0.0142 H   0  0  0  0  0  0  0  0  0  0  0  0
    6.5823   -1.2290   -1.6707 H   0  0  0  0  0  0  0  0  0  0  0  0
    5.2451    0.3569   -3.0129 H   0  0  0  0  0  0  0  0  0  0  0  0
    2.9244    0.8872   -2.3745 H   0  0  0  0  0  0  0  0  0  0  0  0
   -2.4260    1.7367    1.4722 H   0  0  0  0  0  0  0  0  0  0  0  0
   -3.7258    3.8065    1.3481 H   0  0  0  0  0  0  0  0  0  0  0  0
   -3.1234    5.5796   -0.2797 H   0  0  0  0  0  0  0  0  0  0  0  0
   -1.1911    5.2573   -1.8040 H   0  0  0  0  0  0  0  0  0  0  0  0
    0.1179    3.1735   -1.7284 H   0  0  0  0  0  0  0  0  0  0  0  0
    1.1279   -2.0930    2.1618 H   0  0  0  0  0  0  0  0  0  0  0  0
    0.6832   -2.9481    0.6582 H   0  0  0  0  0  0  0  0  0  0  0  0
   -1.5379   -2.9084    1.3158 H   0  0  0  0  0  0  0  0  0  0  0  0
   -1.1237   -1.9998    2.7942 H   0  0  0  0  0  0  0  0  0  0  0  0
   -2.6641    0.0434   -1.2511 H   0  0  0  0  0  0  0  0  0  0  0  0
   -5.0249   -0.2065   -1.8892 H   0  0  0  0  0  0  0  0  0  0  0  0
   -6.6149   -1.3081   -0.3030 H   0  0  0  0  0  0  0  0  0  0  0  0
   -5.7167   -2.1097    1.8856 H   0  0  0  0  0  0  0  0  0  0  0  0
    3.2682   -1.7560    1.0145 H   0  0  0  0  0  0  0  0  0  0  0  0
  1  2  1  0
  2  3  2  0
  3  4  1  0
  4  5  2  0
  5  6  1  0
  6  7  1  0
  7  8  2  0
  8  9  1  0
  9 10  1  0
 10 11  2  0
 11 12  1  0
 12 13  2  0
 13 14  1  0
 14 15  2  0
  9 16  1  0
 16 17  2  0
 17 18  1  0
 18 19  1  0
 19 20  1  0
 20 21  1  0
 21 22  2  0
 22 23  1  0
 23 24  2  0
 24 25  1  0
 25 26  2  0
  6 27  2  0
 27  2  1  0
 17  7  1  0
 26 21  1  0
 15 10  1  0
 20 16  1  0
  1 28  1  0
  1 29  1  0
  1 30  1  0
  3 31  1  0
  4 32  1  0
  5 33  1  0
 11 34  1  0
 12 35  1  0
 13 36  1  0
 14 37  1  0
 15 38  1  0
 18 39  1  0
 18 40  1  0
 19 41  1  0
 19 42  1  0
 22 43  1  0
 23 44  1  0
 24 45  1  0
 25 46  1  0
 27 47  1  0
M  END
$$$$
