
     RDKit          3D

 33 35  0  0  0  0  0  0  0  0999 V2000
    2.3939   -1.0951   -1.5593 C   0  0  0  0  0  0  0  0  0  0  0  0
    2.5988   -0.0323   -0.5057 C   0  0  0  0  0  0  0  0  0  0  0  0
    1.6015    0.2209    0.4677 C   0  0  0  0  0  0  0  0  0  0  0  0
    0.3270   -0.5191    0.5196 C   0  0  0  0  0  0  0  0  0  0  0  0
   -0.8145    0.0574    0.0980 C   0  0  0  0  0  0  0  0  0  0  0  0
   -2.1053   -0.6270    0.1297 C   0  0  0  0  0  0  0  0  0  0  0  0
   -3.3226   -0.0089   -0.3202 C   0  0  0  0  0  0  0  0  0  0  0  0
   -4.6373   -0.4730   -0.3645 C   0  0  0  0  0  0  0  0  0  0  0  0
   -5.4548    0.5501   -0.9030 C   0  0  0  0  0  0  0  0  0  0  0  0
   -4.6139    1.5976   -1.1671 C   0  0  0  0  0  0  0  0  0  0  0  0
   -3.3440    1.2795   -0.8259 O   0  0  0  0  0  0  0  0  0  0  0  0
   -2.1245   -1.8869    0.6054 C   0  0  0  0  0  0  0  0  0  0  0  0
   -0.9778   -2.5051    1.0416 N   0  0  0  0  0  0  0  0  0  0  0  0
    0.2676   -1.9239    1.0390 C   0  0  0  0  0  0  0  0  0  0  0  0
    1.2589   -2.5280    1.4337 O   0  0  0  0  0  0  0  0  0  0  0  0
    1.8019    1.2135    1.4433 C   0  0  0  0  0  0  0  0  0  0  0  0
    2.9823    1.9518    1.4758 C   0  0  0  0  0  0  0  0  0  0  0  0
    3.1775    3.2752    2.8216 Br  0  0  0  0  0  0  0  0  0  0  0  0
    3.9838    1.7052    0.5390 C   0  0  0  0  0  0  0  0  0  0  0  0
    5.1380    2.4436    0.6036 O   0  0  0  0  0  0  0  0  0  0  0  0
    3.7986    0.7162   -0.4439 C   0  0  0  0  0  0  0  0  0  0  0  0
    5.3867    0.3818   -1.8196 I   0  0  0  0  0  0  0  0  0  0  0  0
    2.5752   -0.6877   -2.5590 H   0  0  0  0  0  0  0  0  0  0  0  0
    1.3728   -1.4844   -1.5859 H   0  0  0  0  0  0  0  0  0  0  0  0
    3.0614   -1.9429   -1.3748 H   0  0  0  0  0  0  0  0  0  0  0  0
   -0.8114    1.0735   -0.2902 H   0  0  0  0  0  0  0  0  0  0  0  0
   -4.9774   -1.4471   -0.0424 H   0  0  0  0  0  0  0  0  0  0  0  0
   -6.5215    0.5243   -1.0752 H   0  0  0  0  0  0  0  0  0  0  0  0
   -4.7545    2.5882   -1.5767 H   0  0  0  0  0  0  0  0  0  0  0  0
   -3.0219   -2.4915    0.6769 H   0  0  0  0  0  0  0  0  0  0  0  0
   -1.0120   -3.4538    1.3955 H   0  0  0  0  0  0  0  0  0  0  0  0
    1.0318    1.4020    2.1897 H   0  0  0  0  0  0  0  0  0  0  0  0
    5.7357    2.1259   -0.0960 H   0  0  0  0  0  0  0  0  0  0  0  0
  1  2  1  0
  2  3  2  0
  3  4  1  0
  4  5  2  0
  5  6  1  0
  6  7  1  0
  7  8  2  0
  8  9  1  0
  9 10  2  0
 10 11  1  0
  6 12  2  0
 12 13  1  0
 13 14  1  0
 14 15  2  0
  3 16  1  0
 16 17  2  0
 17 18  1  0
 17 19  1  0
 19 20  1  0
 19 21  2  0
 21 22  1  0
 21  2  1  0
 14  4  1  0
 11  7  1  0
  1 23  1  0
  1 24  1  0
  1 25  1  0
  5 26  1  0
  8 27  1  0
  9 28  1  0
 10 29  1  0
 12 30  1  0
 13 31  1  0
 16 32  1  0
 20 33  1  0
M  END
$$$$
