
     RDKit          3D

 43 44  0  0  0  0  0  0  0  0999 V2000
   -5.4354   -0.0277   -2.7484 O   0  0  0  0  0  0  0  0  0  0  0  0
   -6.3561    0.6502   -2.3193 C   0  0  0  0  0  0  0  0  0  0  0  0
   -6.9127    0.6563   -1.0575 N   0  0  0  0  0  0  0  0  0  0  0  0
   -6.5206   -0.0613    0.0520 C   0  0  0  0  0  0  0  0  0  0  0  0
   -5.2948   -0.4438    0.4704 C   0  0  0  0  0  0  0  0  0  0  0  0
   -4.0390    0.0080   -0.1355 C   0  0  0  0  0  0  0  0  0  0  0  0
   -2.7938   -0.3741    0.2048 C   0  0  0  0  0  0  0  0  0  0  0  0
   -1.5462    0.0996   -0.3829 C   0  0  0  0  0  0  0  0  0  0  0  0
   -1.6205    0.9354   -1.9174 Cl  0  0  0  0  0  0  0  0  0  0  0  0
   -0.3154   -0.0865    0.1352 C   0  0  0  0  0  0  0  0  0  0  0  0
    0.0337   -0.7298    1.3897 C   0  0  0  0  0  0  0  0  0  0  0  0
    1.2777   -0.9142    1.8629 C   0  0  0  0  0  0  0  0  0  0  0  0
    2.5238   -0.5068    1.2030 C   0  0  0  0  0  0  0  0  0  0  0  0
    3.2638   -1.4766    0.5203 C   0  0  0  0  0  0  0  0  0  0  0  0
    4.4660   -1.1403   -0.1173 C   0  0  0  0  0  0  0  0  0  0  0  0
    4.9609    0.1742   -0.0878 C   0  0  0  0  0  0  0  0  0  0  0  0
    6.2232    0.5874   -0.7377 C   0  0  0  0  0  0  0  0  0  0  0  0
    6.7760    1.7780   -0.5818 N   0  0  0  0  0  0  0  0  0  0  0  0
    7.9392    1.8749   -1.3170 C   0  0  0  0  0  0  0  0  0  0  0  0
    8.2771    0.7549   -2.0403 C   0  0  0  0  0  0  0  0  0  0  0  0
    7.1008   -0.4622   -1.7953 S   0  0  0  0  0  0  0  0  0  0  0  0
    4.2096    1.1390    0.6046 C   0  0  0  0  0  0  0  0  0  0  0  0
    3.0097    0.8047    1.2341 C   0  0  0  0  0  0  0  0  0  0  0  0
    2.3526    1.8222    1.8708 O   0  0  0  0  0  0  0  0  0  0  0  0
   -5.2190   -1.3491    1.6858 C   0  0  0  0  0  0  0  0  0  0  0  0
   -4.6529   -0.6486    2.7863 O   0  0  0  0  0  0  0  0  0  0  0  0
   -6.9111    1.3331   -2.9858 H   0  0  0  0  0  0  0  0  0  0  0  0
   -7.8527    1.0363   -1.0245 H   0  0  0  0  0  0  0  0  0  0  0  0
   -7.3726   -0.3083    0.6852 H   0  0  0  0  0  0  0  0  0  0  0  0
   -4.1456    0.7646   -0.9066 H   0  0  0  0  0  0  0  0  0  0  0  0
   -2.6783   -1.1002    1.0006 H   0  0  0  0  0  0  0  0  0  0  0  0
    0.5274    0.2995   -0.4392 H   0  0  0  0  0  0  0  0  0  0  0  0
   -0.7820   -1.0933    2.0103 H   0  0  0  0  0  0  0  0  0  0  0  0
    1.4174   -1.4206    2.8164 H   0  0  0  0  0  0  0  0  0  0  0  0
    2.9116   -2.5054    0.4745 H   0  0  0  0  0  0  0  0  0  0  0  0
    5.0030   -1.9345   -0.6304 H   0  0  0  0  0  0  0  0  0  0  0  0
    8.5073    2.7968   -1.2889 H   0  0  0  0  0  0  0  0  0  0  0  0
    9.1317    0.6000   -2.6824 H   0  0  0  0  0  0  0  0  0  0  0  0
    4.5576    2.1700    0.6530 H   0  0  0  0  0  0  0  0  0  0  0  0
    1.4874    1.4920    2.1667 H   0  0  0  0  0  0  0  0  0  0  0  0
   -4.6171   -2.2400    1.4746 H   0  0  0  0  0  0  0  0  0  0  0  0
   -6.2105   -1.7020    1.9924 H   0  0  0  0  0  0  0  0  0  0  0  0
   -4.6814   -1.2520    3.5467 H   0  0  0  0  0  0  0  0  0  0  0  0
  1  2  2  0
  2  3  1  0
  3  4  1  0
  4  5  2  3
  5  6  1  0
  6  7  2  3
  7  8  1  0
  8  9  1  0
  8 10  2  0
 10 11  1  0
 11 12  2  0
 12 13  1  0
 13 14  2  0
 14 15  1  0
 15 16  2  0
 16 17  1  0
 17 18  2  0
 18 19  1  0
 19 20  2  0
 20 21  1  0
 16 22  1  0
 22 23  2  0
 23 24  1  0
  5 25  1  0
 25 26  1  0
 23 13  1  0
 21 17  1  0
  2 27  1  0
  3 28  1  0
  4 29  1  0
  6 30  1  0
  7 31  1  0
 10 32  1  0
 11 33  1  0
 12 34  1  0
 14 35  1  0
 15 36  1  0
 19 37  1  0
 20 38  1  0
 22 39  1  0
 24 40  1  0
 25 41  1  0
 25 42  1  0
 26 43  1  0
M  END
$$$$
