
     RDKit          3D

 36 39  0  0  0  0  0  0  0  0999 V2000
    0.6837   -1.7694    1.4755 O   0  0  0  0  0  0  0  0  0  0  0  0
    1.6461   -1.2388    0.9570 C   0  0  0  0  0  0  0  0  0  0  0  0
    2.9792   -1.4862    1.2589 N   0  0  0  0  0  0  0  0  0  0  0  0
    3.8329   -0.7478    0.4462 C   0  0  0  0  0  0  0  0  0  0  0  0
    5.2126   -0.7588    0.4688 C   0  0  0  0  0  0  0  0  0  0  0  0
    5.8757    0.0650   -0.4452 C   0  0  0  0  0  0  0  0  0  0  0  0
    5.1461    0.8664   -1.3444 C   0  0  0  0  0  0  0  0  0  0  0  0
    6.1723    2.0809   -2.6898 I   0  0  0  0  0  0  0  0  0  0  0  0
    3.7467    0.8642   -1.3528 C   0  0  0  0  0  0  0  0  0  0  0  0
    3.1006    0.0438   -0.4444 C   0  0  0  0  0  0  0  0  0  0  0  0
    1.6880   -0.2221   -0.1538 C   0  0  0  0  0  0  0  0  0  0  0  0
    0.6394    0.3385   -0.7697 C   0  0  0  0  0  0  0  0  0  0  0  0
   -0.7256    0.2089   -0.5606 N   0  0  0  0  0  0  0  0  0  0  0  0
   -1.4008   -1.0230   -1.0049 C   0  0  0  0  0  0  0  0  0  0  0  0
   -2.9002   -0.7328   -1.1690 C   0  0  0  0  0  0  0  0  0  0  0  0
   -3.6273   -1.9639   -1.2183 O   0  0  0  0  0  0  0  0  0  0  0  0
   -3.4053    0.1372   -0.0450 C   0  0  0  0  0  0  0  0  0  0  0  0
   -4.7744    0.3973    0.1145 C   0  0  0  0  0  0  0  0  0  0  0  0
   -5.2204    1.2085    1.1594 C   0  0  0  0  0  0  0  0  0  0  0  0
   -4.3049    1.7691    2.0500 C   0  0  0  0  0  0  0  0  0  0  0  0
   -2.9404    1.5270    1.8918 C   0  0  0  0  0  0  0  0  0  0  0  0
   -2.4930    0.7293    0.8388 C   0  0  0  0  0  0  0  0  0  0  0  0
   -1.1325    0.5139    0.7595 O   0  0  0  0  0  0  0  0  0  0  0  0
    3.2576   -2.1405    1.9737 H   0  0  0  0  0  0  0  0  0  0  0  0
    5.7674   -1.3780    1.1644 H   0  0  0  0  0  0  0  0  0  0  0  0
    6.9636    0.0783   -0.4509 H   0  0  0  0  0  0  0  0  0  0  0  0
    3.1855    1.4836   -2.0438 H   0  0  0  0  0  0  0  0  0  0  0  0
    0.7987    1.0528   -1.5725 H   0  0  0  0  0  0  0  0  0  0  0  0
   -1.2402   -1.8366   -0.2860 H   0  0  0  0  0  0  0  0  0  0  0  0
   -0.9966   -1.3725   -1.9636 H   0  0  0  0  0  0  0  0  0  0  0  0
   -3.0647   -0.2033   -2.1153 H   0  0  0  0  0  0  0  0  0  0  0  0
   -3.8120   -2.2175   -0.2958 H   0  0  0  0  0  0  0  0  0  0  0  0
   -5.4965   -0.0343   -0.5760 H   0  0  0  0  0  0  0  0  0  0  0  0
   -6.2833    1.4028    1.2799 H   0  0  0  0  0  0  0  0  0  0  0  0
   -4.6533    2.3962    2.8664 H   0  0  0  0  0  0  0  0  0  0  0  0
   -2.2246    1.9615    2.5840 H   0  0  0  0  0  0  0  0  0  0  0  0
  1  2  2  0
  2  3  1  0
  3  4  1  0
  4  5  2  0
  5  6  1  0
  6  7  2  0
  7  8  1  0
  7  9  1  0
  9 10  2  0
 10 11  1  0
 11 12  2  0
 12 13  1  0
 13 14  1  0
 14 15  1  0
 15 16  1  0
 15 17  1  0
 17 18  2  0
 18 19  1  0
 19 20  2  0
 20 21  1  0
 21 22  2  0
 22 23  1  0
 11  2  1  0
 23 13  1  0
 10  4  1  0
 22 17  1  0
  3 24  1  0
  5 25  1  0
  6 26  1  0
  9 27  1  0
 12 28  1  0
 14 29  1  0
 14 30  1  0
 15 31  1  0
 16 32  1  0
 18 33  1  0
 19 34  1  0
 20 35  1  0
 21 36  1  0
M  END
$$$$
