
     RDKit          3D

 49 51  0  0  0  0  0  0  0  0999 V2000
   -4.9912    1.9601    0.0572 C   0  0  0  0  0  0  0  0  0  0  0  0
   -4.9506    0.4975   -0.4118 C   0  0  0  0  0  0  0  0  0  0  0  0
   -3.6810    0.2113   -1.2323 C   0  0  0  0  0  0  0  0  0  0  0  0
   -2.4295    0.1356   -0.3552 C   0  0  2  0  0  0  0  0  0  0  0  0
   -1.2669   -0.2211   -1.1655 N   0  0  0  0  0  0  0  0  0  0  0  0
    0.0120    0.0456   -0.7179 C   0  0  0  0  0  0  0  0  0  0  0  0
    0.2395    0.6546    0.3187 O   0  0  0  0  0  0  0  0  0  0  0  0
    0.9472   -0.4354   -1.5998 N   0  0  0  0  0  0  0  0  0  0  0  0
    2.3513   -0.4498   -1.4552 C   0  0  0  0  0  0  0  0  0  0  0  0
    3.0240   -0.1167   -0.2798 C   0  0  0  0  0  0  0  0  0  0  0  0
    4.4211   -0.2205   -0.2077 C   0  0  0  0  0  0  0  0  0  0  0  0
    5.1618    0.1135    1.0191 C   0  0  0  0  0  0  0  0  0  0  0  0
    6.2929    0.9407    0.9844 C   0  0  0  0  0  0  0  0  0  0  0  0
    6.9609    1.2271    2.1665 C   0  0  0  0  0  0  0  0  0  0  0  0
    6.5902    0.7513    3.3703 N   0  0  0  0  0  0  0  0  0  0  0  0
    5.4987   -0.0375    3.3866 C   0  0  0  0  0  0  0  0  0  0  0  0
    5.0632   -0.6218    4.9393 Cl  0  0  0  0  0  0  0  0  0  0  0  0
    4.7611   -0.3817    2.2663 C   0  0  0  0  0  0  0  0  0  0  0  0
    5.0678   -0.6704   -1.3609 C   0  0  0  0  0  0  0  0  0  0  0  0
    4.4538   -0.9895   -2.5263 N   0  0  0  0  0  0  0  0  0  0  0  0
    3.1175   -0.8668   -2.5555 C   0  0  0  0  0  0  0  0  0  0  0  0
    2.5043   -1.1540   -3.7873 N   0  0  0  0  0  0  0  0  0  0  0  0
   -2.6423   -0.8689    0.7790 C   0  0  0  0  0  0  0  0  0  0  0  0
   -3.9236   -0.5683    1.5525 C   0  0  0  0  0  0  0  0  0  0  0  0
   -5.0826   -0.5122    0.6545 N   0  0  0  0  0  0  0  0  0  0  0  0
   -6.3249   -0.3832    1.4135 C   0  0  0  0  0  0  0  0  0  0  0  0
   -4.8561    2.6362   -0.7944 H   0  0  0  0  0  0  0  0  0  0  0  0
   -5.9576    2.2063    0.5088 H   0  0  0  0  0  0  0  0  0  0  0  0
   -4.2098    2.1906    0.7871 H   0  0  0  0  0  0  0  0  0  0  0  0
   -5.7954    0.3643   -1.1013 H   0  0  0  0  0  0  0  0  0  0  0  0
   -3.5488    0.9760   -2.0085 H   0  0  0  0  0  0  0  0  0  0  0  0
   -3.8090   -0.7403   -1.7677 H   0  0  0  0  0  0  0  0  0  0  0  0
   -2.2325    1.1237    0.0789 H   0  0  0  0  0  0  0  0  0  0  0  0
   -1.3590   -1.0612   -1.7179 H   0  0  0  0  0  0  0  0  0  0  0  0
    0.6129   -0.7839   -2.4886 H   0  0  0  0  0  0  0  0  0  0  0  0
    2.4739    0.2213    0.5932 H   0  0  0  0  0  0  0  0  0  0  0  0
    6.6488    1.3762    0.0551 H   0  0  0  0  0  0  0  0  0  0  0  0
    7.8374    1.8696    2.1720 H   0  0  0  0  0  0  0  0  0  0  0  0
    3.8971   -1.0310    2.3652 H   0  0  0  0  0  0  0  0  0  0  0  0
    6.1476   -0.8023   -1.3820 H   0  0  0  0  0  0  0  0  0  0  0  0
    2.0617   -0.3111   -4.1414 H   0  0  0  0  0  0  0  0  0  0  0  0
    3.2678   -1.4269   -4.4060 H   0  0  0  0  0  0  0  0  0  0  0  0
   -1.7894   -0.8562    1.4680 H   0  0  0  0  0  0  0  0  0  0  0  0
   -2.6916   -1.8873    0.3699 H   0  0  0  0  0  0  0  0  0  0  0  0
   -4.0650   -1.3699    2.2882 H   0  0  0  0  0  0  0  0  0  0  0  0
   -3.8102    0.3639    2.1191 H   0  0  0  0  0  0  0  0  0  0  0  0
   -7.1901   -0.3533    0.7421 H   0  0  0  0  0  0  0  0  0  0  0  0
   -6.3423    0.5113    2.0453 H   0  0  0  0  0  0  0  0  0  0  0  0
   -6.4647   -1.2555    2.0620 H   0  0  0  0  0  0  0  0  0  0  0  0
  1  2  1  0
  2  3  1  0
  3  4  1  0
  4  5  1  0
  5  6  1  0
  6  7  2  0
  6  8  1  0
  8  9  1  0
  9 10  2  0
 10 11  1  0
 11 12  1  0
 12 13  2  0
 13 14  1  0
 14 15  2  0
 15 16  1  0
 16 17  1  0
 16 18  2  0
 11 19  2  0
 19 20  1  0
 20 21  2  0
 21 22  1  0
  4 23  1  0
 23 24  1  0
 24 25  1  0
 25 26  1  0
 25  2  1  0
 21  9  1  0
 18 12  1  0
  1 27  1  0
  1 28  1  0
  1 29  1  0
  2 30  1  0
  3 31  1  0
  3 32  1  0
  4 33  1  1
  5 34  1  0
  8 35  1  0
 10 36  1  0
 13 37  1  0
 14 38  1  0
 18 39  1  0
 19 40  1  0
 22 41  1  0
 22 42  1  0
 23 43  1  0
 23 44  1  0
 24 45  1  0
 24 46  1  0
 26 47  1  0
 26 48  1  0
 26 49  1  0
M  END
$$$$
