
     RDKit          3D

 51 52  0  0  0  0  0  0  0  0999 V2000
   -0.1882    3.3097   -1.7296 C   0  0  0  0  0  0  0  0  0  0  0  0
   -0.5291    1.8378   -1.9119 C   0  0  0  0  0  0  0  0  0  0  0  0
   -0.4736    1.1055   -0.6346 N   0  0  0  0  0  0  0  0  0  0  0  0
    0.7627    0.7972   -0.0464 C   0  0  0  0  0  0  0  0  0  0  0  0
    1.9220    0.2228   -0.4447 C   0  0  0  0  0  0  0  0  0  0  0  0
    3.0057    0.1483    0.4490 N   0  0  0  0  0  0  0  0  0  0  0  0
    3.2156   -1.0932    1.2660 C   0  0  1  0  0  0  0  0  0  0  0  0
    3.6331   -2.2869    0.4163 C   0  0  0  0  0  0  0  0  0  0  0  0
    4.3350   -0.8077    2.2899 C   0  0  0  0  0  0  0  0  0  0  0  0
    5.4158   -0.1366    1.7801 N   0  0  0  0  0  0  0  0  0  0  0  0
    4.3028   -1.1573    3.4649 O   0  0  0  0  0  0  0  0  0  0  0  0
    2.2313   -0.3248   -1.7617 C   0  0  0  0  0  0  0  0  0  0  0  0
    1.5504   -1.2154   -2.5016 C   0  0  0  0  0  0  0  0  0  0  0  0
    0.1932   -1.6155   -2.1101 C   0  0  0  0  0  0  0  0  0  0  0  0
   -0.1216   -2.4717   -1.1866 N   0  0  0  0  0  0  0  0  0  0  0  0
   -1.4267   -2.2486   -0.8061 C   0  0  0  0  0  0  0  0  0  0  0  0
   -1.6085   -1.4444    0.2566 C   0  0  0  0  0  0  0  0  0  0  0  0
   -2.5189   -0.2300    0.2735 C   0  0  0  0  0  0  0  0  0  0  0  0
   -3.5524   -0.1817   -0.8752 C   0  0  0  0  0  0  0  0  0  0  0  0
   -1.6295    1.0478    0.1711 C   0  0  0  0  0  0  0  0  0  0  0  0
   -2.0257    1.9267    1.1012 C   0  0  0  0  0  0  0  0  0  0  0  0
   -3.1441    1.3707    1.9133 C   0  0  0  0  0  0  0  0  0  0  0  0
   -3.1255   -0.0695    1.6187 N   0  0  0  0  0  0  0  0  0  0  0  0
   -4.3983   -0.7217    1.8525 C   0  0  0  0  0  0  0  0  0  0  0  0
    0.8278    3.4371   -1.3427 H   0  0  0  0  0  0  0  0  0  0  0  0
   -0.8770    3.7979   -1.0334 H   0  0  0  0  0  0  0  0  0  0  0  0
   -0.2524    3.8332   -2.6892 H   0  0  0  0  0  0  0  0  0  0  0  0
    0.1591    1.3997   -2.6409 H   0  0  0  0  0  0  0  0  0  0  0  0
   -1.5309    1.7511   -2.3497 H   0  0  0  0  0  0  0  0  0  0  0  0
    0.7022    1.0465    1.0140 H   0  0  0  0  0  0  0  0  0  0  0  0
    2.8910    0.8992    1.1345 H   0  0  0  0  0  0  0  0  0  0  0  0
    2.3010   -1.3155    1.8297 H   0  0  0  0  0  0  0  0  0  0  0  0
    4.4581   -2.0350   -0.2604 H   0  0  0  0  0  0  0  0  0  0  0  0
    3.9661   -3.1174    1.0484 H   0  0  0  0  0  0  0  0  0  0  0  0
    2.7996   -2.6541   -0.1881 H   0  0  0  0  0  0  0  0  0  0  0  0
    5.3168    0.3251    0.8824 H   0  0  0  0  0  0  0  0  0  0  0  0
    6.1401    0.1577    2.4190 H   0  0  0  0  0  0  0  0  0  0  0  0
    3.2113   -0.0258   -2.1298 H   0  0  0  0  0  0  0  0  0  0  0  0
    1.9119   -1.5620   -3.4586 H   0  0  0  0  0  0  0  0  0  0  0  0
   -0.5838   -1.0263   -2.6385 H   0  0  0  0  0  0  0  0  0  0  0  0
   -2.1791   -2.3475   -1.5853 H   0  0  0  0  0  0  0  0  0  0  0  0
   -0.7890   -1.3773    0.9720 H   0  0  0  0  0  0  0  0  0  0  0  0
   -3.0659   -0.1370   -1.8567 H   0  0  0  0  0  0  0  0  0  0  0  0
   -4.2045   -1.0631   -0.8721 H   0  0  0  0  0  0  0  0  0  0  0  0
   -4.1949    0.7051   -0.8059 H   0  0  0  0  0  0  0  0  0  0  0  0
   -1.5531    2.8754    1.3023 H   0  0  0  0  0  0  0  0  0  0  0  0
   -4.0833    1.8549    1.6221 H   0  0  0  0  0  0  0  0  0  0  0  0
   -2.9710    1.5351    2.9810 H   0  0  0  0  0  0  0  0  0  0  0  0
   -4.3395   -1.7907    1.6213 H   0  0  0  0  0  0  0  0  0  0  0  0
   -4.6704   -0.6439    2.9111 H   0  0  0  0  0  0  0  0  0  0  0  0
   -5.2161   -0.2838    1.2688 H   0  0  0  0  0  0  0  0  0  0  0  0
  1  2  1  0
  2  3  1  0
  3  4  1  0
  4  5  2  3
  5  6  1  0
  6  7  1  0
  7  8  1  0
  7  9  1  0
  9 10  1  0
  9 11  2  0
  5 12  1  0
 12 13  2  3
 13 14  1  0
 14 15  2  3
 15 16  1  0
 16 17  2  3
 17 18  1  0
 18 19  1  0
 18 20  1  0
 20 21  2  0
 21 22  1  0
 22 23  1  0
 23 24  1  0
 20  3  1  0
 23 18  1  0
  1 25  1  0
  1 26  1  0
  1 27  1  0
  2 28  1  0
  2 29  1  0
  4 30  1  0
  6 31  1  0
  7 32  1  1
  8 33  1  0
  8 34  1  0
  8 35  1  0
 10 36  1  0
 10 37  1  0
 12 38  1  0
 13 39  1  0
 14 40  1  0
 16 41  1  0
 17 42  1  0
 19 43  1  0
 19 44  1  0
 19 45  1  0
 21 46  1  0
 22 47  1  0
 22 48  1  0
 24 49  1  0
 24 50  1  0
 24 51  1  0
M  END
$$$$
