
     RDKit          3D

 45 45  0  0  0  0  0  0  0  0999 V2000
   -1.6962    4.3267    0.0805 C   0  0  0  0  0  0  0  0  0  0  0  0
   -1.2307    3.5697   -1.1536 C   0  0  0  0  0  0  0  0  0  0  0  0
   -1.6317    2.0922   -1.1506 C   0  0  0  0  0  0  0  0  0  0  0  0
   -0.9610    1.2868   -0.0295 C   0  0  0  0  0  0  0  0  0  0  0  0
   -1.2664   -0.2048   -0.1341 C   0  0  0  0  0  0  0  0  0  0  0  0
   -0.3585   -1.0520   -0.6600 C   0  0  0  0  0  0  0  0  0  0  0  0
    0.9383   -0.8207   -1.0860 N   0  0  0  0  0  0  0  0  0  0  0  0
    2.0105   -0.5358   -0.1298 C   0  0  0  0  0  0  0  0  0  0  0  0
    3.1555    0.1651   -0.8596 C   0  0  0  0  0  0  0  0  0  0  0  0
    4.2806    0.6231    0.0720 C   0  0  0  0  0  0  0  0  0  0  0  0
    5.0155   -0.5376    0.7419 C   0  0  0  0  0  0  0  0  0  0  0  0
    6.1281   -0.0538    1.5508 N   0  0  0  0  0  0  0  0  0  0  0  0
   -2.5451   -0.5438    0.2804 N   0  0  0  0  0  0  0  0  0  0  0  0
   -3.1481   -1.7720    0.5475 C   0  0  0  0  0  0  0  0  0  0  0  0
   -2.4516   -2.8823    1.0151 C   0  0  0  0  0  0  0  0  0  0  0  0
   -3.1382   -4.0671    1.2771 C   0  0  0  0  0  0  0  0  0  0  0  0
   -4.5093   -4.1138    1.0769 C   0  0  0  0  0  0  0  0  0  0  0  0
   -5.1345   -2.9641    0.6327 C   0  0  0  0  0  0  0  0  0  0  0  0
   -4.4882   -1.8046    0.3758 N   0  0  0  0  0  0  0  0  0  0  0  0
   -2.7772    4.2257    0.2193 H   0  0  0  0  0  0  0  0  0  0  0  0
   -1.4662    5.3920   -0.0237 H   0  0  0  0  0  0  0  0  0  0  0  0
   -1.1954    3.9674    0.9842 H   0  0  0  0  0  0  0  0  0  0  0  0
   -0.1424    3.6611   -1.2490 H   0  0  0  0  0  0  0  0  0  0  0  0
   -1.6670    4.0459   -2.0398 H   0  0  0  0  0  0  0  0  0  0  0  0
   -1.3536    1.6617   -2.1212 H   0  0  0  0  0  0  0  0  0  0  0  0
   -2.7230    2.0153   -1.0746 H   0  0  0  0  0  0  0  0  0  0  0  0
   -1.3002    1.6422    0.9515 H   0  0  0  0  0  0  0  0  0  0  0  0
    0.1149    1.4820   -0.0587 H   0  0  0  0  0  0  0  0  0  0  0  0
   -0.6506   -2.0778   -0.8743 H   0  0  0  0  0  0  0  0  0  0  0  0
    1.2367   -1.5556   -1.7291 H   0  0  0  0  0  0  0  0  0  0  0  0
    1.6533    0.0919    0.6935 H   0  0  0  0  0  0  0  0  0  0  0  0
    2.3496   -1.4825    0.3047 H   0  0  0  0  0  0  0  0  0  0  0  0
    2.7613    1.0464   -1.3822 H   0  0  0  0  0  0  0  0  0  0  0  0
    3.5624   -0.4957   -1.6354 H   0  0  0  0  0  0  0  0  0  0  0  0
    4.9937    1.2116   -0.5196 H   0  0  0  0  0  0  0  0  0  0  0  0
    3.8713    1.2981    0.8343 H   0  0  0  0  0  0  0  0  0  0  0  0
    5.4002   -1.2306   -0.0139 H   0  0  0  0  0  0  0  0  0  0  0  0
    4.3394   -1.1024    1.3909 H   0  0  0  0  0  0  0  0  0  0  0  0
    5.7869    0.6084    2.2472 H   0  0  0  0  0  0  0  0  0  0  0  0
    6.7778    0.4696    0.9643 H   0  0  0  0  0  0  0  0  0  0  0  0
   -3.2650    0.1368    0.0597 H   0  0  0  0  0  0  0  0  0  0  0  0
   -1.3870   -2.8286    1.2107 H   0  0  0  0  0  0  0  0  0  0  0  0
   -2.6042   -4.9384    1.6442 H   0  0  0  0  0  0  0  0  0  0  0  0
   -5.0768   -5.0164    1.2711 H   0  0  0  0  0  0  0  0  0  0  0  0
   -6.2077   -2.9392    0.4672 H   0  0  0  0  0  0  0  0  0  0  0  0
  1  2  1  0
  2  3  1  0
  3  4  1  0
  4  5  1  0
  5  6  2  3
  6  7  1  0
  7  8  1  0
  8  9  1  0
  9 10  1  0
 10 11  1  0
 11 12  1  0
  5 13  1  0
 13 14  1  0
 14 15  2  0
 15 16  1  0
 16 17  2  0
 17 18  1  0
 18 19  2  0
 19 14  1  0
  1 20  1  0
  1 21  1  0
  1 22  1  0
  2 23  1  0
  2 24  1  0
  3 25  1  0
  3 26  1  0
  4 27  1  0
  4 28  1  0
  6 29  1  0
  7 30  1  0
  8 31  1  0
  8 32  1  0
  9 33  1  0
  9 34  1  0
 10 35  1  0
 10 36  1  0
 11 37  1  0
 11 38  1  0
 12 39  1  0
 12 40  1  0
 13 41  1  0
 15 42  1  0
 16 43  1  0
 17 44  1  0
 18 45  1  0
M  END
$$$$
