
     RDKit          3D

 50 53  0  0  0  0  0  0  0  0999 V2000
   -0.1533   -1.9196   -2.3360 C   0  0  0  0  0  0  0  0  0  0  0  0
   -0.1533   -1.8473   -0.8059 C   0  0  0  0  0  0  0  0  0  0  0  0
   -0.8371   -3.0223   -0.2475 N   0  0  0  0  0  0  0  0  0  0  0  0
   -0.2509   -4.3303   -0.4409 C   0  0  0  0  0  0  0  0  0  0  0  0
   -2.1310   -2.8516    0.1817 C   0  0  0  0  0  0  0  0  0  0  0  0
   -2.7667   -1.7404    0.3734 N   0  0  0  0  0  0  0  0  0  0  0  0
   -2.0607   -0.5922    0.1637 C   0  0  0  0  0  0  0  0  0  0  0  0
   -2.3024    0.7636    0.3635 C   0  0  0  0  0  0  0  0  0  0  0  0
   -3.5128    1.3835    0.8936 C   0  0  0  0  0  0  0  0  0  0  0  0
   -4.7286    0.6963    1.0028 C   0  0  0  0  0  0  0  0  0  0  0  0
   -5.8666    1.3288    1.5150 C   0  0  0  0  0  0  0  0  0  0  0  0
   -5.8051    2.6588    1.9225 C   0  0  0  0  0  0  0  0  0  0  0  0
   -4.6070    3.3591    1.8167 C   0  0  0  0  0  0  0  0  0  0  0  0
   -3.4711    2.7258    1.3041 C   0  0  0  0  0  0  0  0  0  0  0  0
   -1.1899    1.5170    0.0113 N   0  0  0  0  0  0  0  0  0  0  0  0
   -0.2902    0.6551   -0.3820 C   0  0  0  0  0  0  0  0  0  0  0  0
    0.9650    0.9437   -0.7979 N   0  0  0  0  0  0  0  0  0  0  0  0
    2.0083    0.8492    0.2500 C   0  0  2  0  0  0  0  0  0  0  0  0
    2.0682    2.1580    1.0888 C   0  0  0  0  0  0  0  0  0  0  0  0
    2.2635    1.8720    2.4778 O   0  0  0  0  0  0  0  0  0  0  0  0
    3.3648    0.4996   -0.3596 C   0  0  0  0  0  0  0  0  0  0  0  0
    4.4585    0.2693    0.4949 C   0  0  0  0  0  0  0  0  0  0  0  0
    5.7160   -0.0597   -0.0154 C   0  0  0  0  0  0  0  0  0  0  0  0
    5.9024   -0.1716   -1.3894 C   0  0  0  0  0  0  0  0  0  0  0  0
    4.8318    0.0441   -2.2526 C   0  0  0  0  0  0  0  0  0  0  0  0
    3.5733    0.3749   -1.7428 C   0  0  0  0  0  0  0  0  0  0  0  0
   -0.7834   -0.6154   -0.3555 N   0  0  0  0  0  0  0  0  0  0  0  0
    0.3432   -1.0507   -2.7792 H   0  0  0  0  0  0  0  0  0  0  0  0
    0.3713   -2.8127   -2.6905 H   0  0  0  0  0  0  0  0  0  0  0  0
   -1.1745   -1.9552   -2.7322 H   0  0  0  0  0  0  0  0  0  0  0  0
    0.8769   -1.8320   -0.4332 H   0  0  0  0  0  0  0  0  0  0  0  0
    0.8394   -4.2701   -0.5165 H   0  0  0  0  0  0  0  0  0  0  0  0
   -0.6375   -4.7929   -1.3537 H   0  0  0  0  0  0  0  0  0  0  0  0
   -0.4855   -4.9854    0.4040 H   0  0  0  0  0  0  0  0  0  0  0  0
   -2.6546   -3.8030    0.3781 H   0  0  0  0  0  0  0  0  0  0  0  0
   -4.8127   -0.3393    0.6854 H   0  0  0  0  0  0  0  0  0  0  0  0
   -6.7999    0.7779    1.5912 H   0  0  0  0  0  0  0  0  0  0  0  0
   -6.6899    3.1486    2.3195 H   0  0  0  0  0  0  0  0  0  0  0  0
   -4.5521    4.3977    2.1299 H   0  0  0  0  0  0  0  0  0  0  0  0
   -2.5436    3.2894    1.2267 H   0  0  0  0  0  0  0  0  0  0  0  0
    0.9970    1.8953   -1.1673 H   0  0  0  0  0  0  0  0  0  0  0  0
    1.7636    0.0097    0.9172 H   0  0  0  0  0  0  0  0  0  0  0  0
    1.1421    2.7381    1.0144 H   0  0  0  0  0  0  0  0  0  0  0  0
    2.8841    2.8119    0.7620 H   0  0  0  0  0  0  0  0  0  0  0  0
    1.3886    1.6301    2.8337 H   0  0  0  0  0  0  0  0  0  0  0  0
    4.3373    0.3516    1.5748 H   0  0  0  0  0  0  0  0  0  0  0  0
    6.5496   -0.2251    0.6622 H   0  0  0  0  0  0  0  0  0  0  0  0
    6.8814   -0.4245   -1.7877 H   0  0  0  0  0  0  0  0  0  0  0  0
    4.9753   -0.0424   -3.3263 H   0  0  0  0  0  0  0  0  0  0  0  0
    2.7590    0.5345   -2.4467 H   0  0  0  0  0  0  0  0  0  0  0  0
  1  2  1  0
  2  3  1  0
  3  4  1  0
  3  5  1  0
  5  6  2  0
  6  7  1  0
  7  8  2  0
  8  9  1  0
  9 10  2  0
 10 11  1  0
 11 12  2  0
 12 13  1  0
 13 14  2  0
  8 15  1  0
 15 16  2  0
 16 17  1  0
 17 18  1  0
 18 19  1  0
 19 20  1  0
 18 21  1  0
 21 22  2  0
 22 23  1  0
 23 24  2  0
 24 25  1  0
 25 26  2  0
 16 27  1  0
 27  2  1  0
 27  7  1  0
 14  9  1  0
 26 21  1  0
  1 28  1  0
  1 29  1  0
  1 30  1  0
  2 31  1  0
  4 32  1  0
  4 33  1  0
  4 34  1  0
  5 35  1  0
 10 36  1  0
 11 37  1  0
 12 38  1  0
 13 39  1  0
 14 40  1  0
 17 41  1  0
 18 42  1  1
 19 43  1  0
 19 44  1  0
 20 45  1  0
 22 46  1  0
 23 47  1  0
 24 48  1  0
 25 49  1  0
 26 50  1  0
M  END
$$$$
