
     RDKit          3D

 68 71  0  0  0  0  0  0  0  0999 V2000
    6.6818    2.1191   -3.9856 C   0  0  0  0  0  0  0  0  0  0  0  0
    5.9918    1.2208   -3.1262 O   0  0  0  0  0  0  0  0  0  0  0  0
    6.4171    1.1394   -1.8275 C   0  0  0  0  0  0  0  0  0  0  0  0
    7.4243    1.9187   -1.2555 C   0  0  0  0  0  0  0  0  0  0  0  0
    7.7880    1.7235    0.0801 C   0  0  0  0  0  0  0  0  0  0  0  0
    7.1381    0.7618    0.8477 C   0  0  0  0  0  0  0  0  0  0  0  0
    7.5783    0.6115    2.1364 O   0  0  0  0  0  0  0  0  0  0  0  0
    6.0934    0.0035    0.3059 C   0  0  0  0  0  0  0  0  0  0  0  0
    5.4003   -0.9885    1.1560 C   0  0  0  0  0  0  0  0  0  0  0  0
    6.0400   -1.5154    2.0677 O   0  0  0  0  0  0  0  0  0  0  0  0
    3.9658   -1.3231    1.0017 C   0  0  0  0  0  0  0  0  0  0  0  0
    3.0125   -0.3420    0.7067 C   0  0  0  0  0  0  0  0  0  0  0  0
    1.6605   -0.6891    0.6073 C   0  0  0  0  0  0  0  0  0  0  0  0
    1.2539   -2.0143    0.8166 C   0  0  0  0  0  0  0  0  0  0  0  0
   -0.1723   -2.4331    0.7094 C   0  0  0  0  0  0  0  0  0  0  0  0
   -0.4551   -3.5971    0.4466 O   0  0  0  0  0  0  0  0  0  0  0  0
   -1.1176   -1.4619    0.9489 N   0  0  0  0  0  0  0  0  0  0  0  0
   -2.5499   -1.7440    0.9293 C   0  0  2  0  0  0  0  0  0  0  0  0
   -3.0748   -1.9136   -0.5007 C   0  0  0  0  0  0  0  0  0  0  0  0
   -4.5845   -2.1782   -0.5174 C   0  0  0  0  0  0  0  0  0  0  0  0
   -5.3500   -1.1598    0.2306 N   0  0  0  0  0  0  0  0  0  0  0  0
   -6.8018   -1.4583    0.2409 C   0  0  0  0  0  0  0  0  0  0  0  0
   -7.4802   -1.4851   -1.1417 C   0  0  0  0  0  0  0  0  0  0  0  0
   -7.2972   -2.7310   -1.8075 O   0  0  0  0  0  0  0  0  0  0  0  0
   -4.8582   -1.0728    1.6267 C   0  0  0  0  0  0  0  0  0  0  0  0
   -3.3750   -0.6560    1.6600 C   0  0  0  0  0  0  0  0  0  0  0  0
   -3.2350    0.6752    1.0481 N   0  0  0  0  0  0  0  0  0  0  0  0
   -2.1319    1.4750    1.2115 C   0  0  0  0  0  0  0  0  0  0  0  0
   -1.1890    1.1704    1.9349 O   0  0  0  0  0  0  0  0  0  0  0  0
   -2.1043    2.7509    0.4547 C   0  0  0  0  0  0  0  0  0  0  0  0
   -1.3856    3.8170    0.9959 C   0  0  0  0  0  0  0  0  0  0  0  0
   -1.3478    5.0015    0.2866 C   0  0  0  0  0  0  0  0  0  0  0  0
   -1.9617    5.1786   -0.9027 N   0  0  0  0  0  0  0  0  0  0  0  0
   -2.6347    4.1243   -1.4118 C   0  0  0  0  0  0  0  0  0  0  0  0
   -2.7355    2.8984   -0.7801 C   0  0  0  0  0  0  0  0  0  0  0  0
    2.2127   -2.9910    1.1157 C   0  0  0  0  0  0  0  0  0  0  0  0
    3.5619   -2.6444    1.2229 C   0  0  0  0  0  0  0  0  0  0  0  0
    5.7619    0.1830   -1.0381 C   0  0  0  0  0  0  0  0  0  0  0  0
    4.8208   -0.5854   -1.6081 F   0  0  0  0  0  0  0  0  0  0  0  0
    6.5467    3.1553   -3.6605 H   0  0  0  0  0  0  0  0  0  0  0  0
    7.7429    1.8607   -4.0571 H   0  0  0  0  0  0  0  0  0  0  0  0
    6.2477    2.0250   -4.9859 H   0  0  0  0  0  0  0  0  0  0  0  0
    7.9555    2.6765   -1.8205 H   0  0  0  0  0  0  0  0  0  0  0  0
    8.5853    2.3161    0.5229 H   0  0  0  0  0  0  0  0  0  0  0  0
    7.1911   -0.2219    2.4910 H   0  0  0  0  0  0  0  0  0  0  0  0
    3.2991    0.6957    0.5572 H   0  0  0  0  0  0  0  0  0  0  0  0
    0.9422    0.0853    0.3523 H   0  0  0  0  0  0  0  0  0  0  0  0
   -0.8297   -0.5797    1.3718 H   0  0  0  0  0  0  0  0  0  0  0  0
   -2.6875   -2.6949    1.4618 H   0  0  0  0  0  0  0  0  0  0  0  0
   -2.5615   -2.7438   -1.0003 H   0  0  0  0  0  0  0  0  0  0  0  0
   -2.8498   -1.0180   -1.0949 H   0  0  0  0  0  0  0  0  0  0  0  0
   -4.8881   -2.1813   -1.5694 H   0  0  0  0  0  0  0  0  0  0  0  0
   -4.7819   -3.1795   -0.1123 H   0  0  0  0  0  0  0  0  0  0  0  0
   -6.9883   -2.4082    0.7576 H   0  0  0  0  0  0  0  0  0  0  0  0
   -7.2965   -0.6645    0.8144 H   0  0  0  0  0  0  0  0  0  0  0  0
   -8.5584   -1.3347   -1.0246 H   0  0  0  0  0  0  0  0  0  0  0  0
   -7.1021   -0.6844   -1.7845 H   0  0  0  0  0  0  0  0  0  0  0  0
   -7.6508   -3.4306   -1.2326 H   0  0  0  0  0  0  0  0  0  0  0  0
   -4.9929   -2.0272    2.1522 H   0  0  0  0  0  0  0  0  0  0  0  0
   -5.4404   -0.3160    2.1676 H   0  0  0  0  0  0  0  0  0  0  0  0
   -3.0353   -0.5770    2.7001 H   0  0  0  0  0  0  0  0  0  0  0  0
   -3.9639    0.9164    0.3875 H   0  0  0  0  0  0  0  0  0  0  0  0
   -0.8729    3.7265    1.9478 H   0  0  0  0  0  0  0  0  0  0  0  0
   -0.8067    5.8649    0.6641 H   0  0  0  0  0  0  0  0  0  0  0  0
   -3.1019    4.2952   -2.3779 H   0  0  0  0  0  0  0  0  0  0  0  0
   -3.2674    2.0889   -1.2646 H   0  0  0  0  0  0  0  0  0  0  0  0
    1.9106   -4.0248    1.2745 H   0  0  0  0  0  0  0  0  0  0  0  0
    4.2940   -3.4084    1.4764 H   0  0  0  0  0  0  0  0  0  0  0  0
  1  2  1  0
  2  3  1  0
  3  4  2  0
  4  5  1  0
  5  6  2  0
  6  7  1  0
  6  8  1  0
  8  9  1  0
  9 10  2  0
  9 11  1  0
 11 12  2  0
 12 13  1  0
 13 14  2  0
 14 15  1  0
 15 16  2  0
 15 17  1  0
 17 18  1  0
 18 19  1  0
 19 20  1  0
 20 21  1  0
 21 22  1  0
 22 23  1  0
 23 24  1  0
 21 25  1  0
 25 26  1  0
 26 27  1  0
 27 28  1  0
 28 29  2  0
 28 30  1  0
 30 31  2  0
 31 32  1  0
 32 33  2  0
 33 34  1  0
 34 35  2  0
 14 36  1  0
 36 37  2  0
  8 38  2  0
 38 39  1  0
 38  3  1  0
 37 11  1  0
 26 18  1  0
 35 30  1  0
  1 40  1  0
  1 41  1  0
  1 42  1  0
  4 43  1  0
  5 44  1  0
  7 45  1  0
 12 46  1  0
 13 47  1  0
 17 48  1  0
 18 49  1  1
 19 50  1  0
 19 51  1  0
 20 52  1  0
 20 53  1  0
 22 54  1  0
 22 55  1  0
 23 56  1  0
 23 57  1  0
 24 58  1  0
 25 59  1  0
 25 60  1  0
 26 61  1  0
 27 62  1  0
 31 63  1  0
 32 64  1  0
 34 65  1  0
 35 66  1  0
 36 67  1  0
 37 68  1  0
M  END
$$$$
