
     RDKit          3D

 67 70  0  0  0  0  0  0  0  0999 V2000
    8.2504   -2.0365   -3.1951 C   0  0  0  0  0  0  0  0  0  0  0  0
    7.1716   -1.7065   -2.3292 O   0  0  0  0  0  0  0  0  0  0  0  0
    7.4848   -1.1393   -1.1229 C   0  0  0  0  0  0  0  0  0  0  0  0
    8.7708   -0.7957   -0.7008 C   0  0  0  0  0  0  0  0  0  0  0  0
    8.9659   -0.2377    0.5654 C   0  0  0  0  0  0  0  0  0  0  0  0
    7.8780   -0.0112    1.4047 C   0  0  0  0  0  0  0  0  0  0  0  0
    8.1611    0.5095    2.6392 O   0  0  0  0  0  0  0  0  0  0  0  0
    6.5769   -0.3101    0.9836 C   0  0  0  0  0  0  0  0  0  0  0  0
    5.4393   -0.0392    1.8893 C   0  0  0  0  0  0  0  0  0  0  0  0
    5.6445   -0.0761    3.1033 O   0  0  0  0  0  0  0  0  0  0  0  0
    4.0868    0.3219    1.4049 C   0  0  0  0  0  0  0  0  0  0  0  0
    3.9033    1.1791    0.3143 C   0  0  0  0  0  0  0  0  0  0  0  0
    2.6096    1.5218   -0.0898 C   0  0  0  0  0  0  0  0  0  0  0  0
    1.4963    1.0144    0.5932 C   0  0  0  0  0  0  0  0  0  0  0  0
    0.1406    1.4134    0.1281 C   0  0  0  0  0  0  0  0  0  0  0  0
   -0.0265    2.4975   -0.4183 O   0  0  0  0  0  0  0  0  0  0  0  0
   -0.8689    0.4940    0.3252 N   0  0  0  0  0  0  0  0  0  0  0  0
   -2.2502    0.7678   -0.0695 C   0  0  2  0  0  0  0  0  0  0  0  0
   -2.9284    1.7708    0.8779 C   0  0  0  0  0  0  0  0  0  0  0  0
   -2.9182    1.4642    2.3744 C   0  0  0  0  0  0  0  0  0  0  0  0
   -2.9048    0.0024    2.8126 C   0  0  0  0  0  0  0  0  0  0  0  0
   -3.7960   -0.9259    2.1345 N   0  0  0  0  0  0  0  0  0  0  0  0
   -5.1921   -0.5313    2.0951 C   0  0  0  0  0  0  0  0  0  0  0  0
   -3.2675   -1.4586    0.8772 C   0  0  0  0  0  0  0  0  0  0  0  0
   -3.0763   -0.5207   -0.3432 C   0  0  0  0  0  0  0  0  0  0  0  0
   -4.3495   -0.2286   -1.0174 N   0  0  0  0  0  0  0  0  0  0  0  0
   -4.9889   -1.1747   -1.7902 C   0  0  0  0  0  0  0  0  0  0  0  0
   -4.5286   -2.2902   -2.0044 O   0  0  0  0  0  0  0  0  0  0  0  0
   -6.2837   -0.7760   -2.4010 C   0  0  0  0  0  0  0  0  0  0  0  0
   -6.6745   -1.4069   -3.5826 C   0  0  0  0  0  0  0  0  0  0  0  0
   -7.8824   -1.0425   -4.1460 C   0  0  0  0  0  0  0  0  0  0  0  0
   -8.7062   -0.1157   -3.6119 N   0  0  0  0  0  0  0  0  0  0  0  0
   -8.3135    0.4645   -2.4583 C   0  0  0  0  0  0  0  0  0  0  0  0
   -7.1233    0.1724   -1.8155 C   0  0  0  0  0  0  0  0  0  0  0  0
    1.6834    0.1863    1.7074 C   0  0  0  0  0  0  0  0  0  0  0  0
    2.9770   -0.1556    2.1130 C   0  0  0  0  0  0  0  0  0  0  0  0
    6.3973   -0.8969   -0.2702 C   0  0  0  0  0  0  0  0  0  0  0  0
    5.1699   -1.2667   -0.6721 F   0  0  0  0  0  0  0  0  0  0  0  0
    8.9249   -2.7608   -2.7271 H   0  0  0  0  0  0  0  0  0  0  0  0
    8.7910   -1.1383   -3.5102 H   0  0  0  0  0  0  0  0  0  0  0  0
    7.8298   -2.5036   -4.0908 H   0  0  0  0  0  0  0  0  0  0  0  0
    9.6437   -0.9578   -1.3250 H   0  0  0  0  0  0  0  0  0  0  0  0
    9.9689    0.0133    0.9028 H   0  0  0  0  0  0  0  0  0  0  0  0
    7.3527    0.4274    3.1956 H   0  0  0  0  0  0  0  0  0  0  0  0
    4.7493    1.5983   -0.2238 H   0  0  0  0  0  0  0  0  0  0  0  0
    2.4698    2.1886   -0.9393 H   0  0  0  0  0  0  0  0  0  0  0  0
   -0.6359   -0.4253    0.6752 H   0  0  0  0  0  0  0  0  0  0  0  0
   -2.1813    1.2829   -1.0391 H   0  0  0  0  0  0  0  0  0  0  0  0
   -2.4548    2.7536    0.7492 H   0  0  0  0  0  0  0  0  0  0  0  0
   -3.9648    1.9313    0.5611 H   0  0  0  0  0  0  0  0  0  0  0  0
   -3.7810    1.9694    2.8279 H   0  0  0  0  0  0  0  0  0  0  0  0
   -2.0367    1.9460    2.8183 H   0  0  0  0  0  0  0  0  0  0  0  0
   -3.1498   -0.0199    3.8829 H   0  0  0  0  0  0  0  0  0  0  0  0
   -1.8768   -0.3793    2.7743 H   0  0  0  0  0  0  0  0  0  0  0  0
   -5.8137   -1.3481    1.7116 H   0  0  0  0  0  0  0  0  0  0  0  0
   -5.5560   -0.3144    3.1056 H   0  0  0  0  0  0  0  0  0  0  0  0
   -5.3764    0.3508    1.4769 H   0  0  0  0  0  0  0  0  0  0  0  0
   -2.2963   -1.9219    1.0985 H   0  0  0  0  0  0  0  0  0  0  0  0
   -3.8981   -2.3076    0.5825 H   0  0  0  0  0  0  0  0  0  0  0  0
   -2.4946   -1.1058   -1.0708 H   0  0  0  0  0  0  0  0  0  0  0  0
   -4.7142    0.7120   -0.9771 H   0  0  0  0  0  0  0  0  0  0  0  0
   -6.0529   -2.1628   -4.0515 H   0  0  0  0  0  0  0  0  0  0  0  0
   -8.2327   -1.5006   -5.0670 H   0  0  0  0  0  0  0  0  0  0  0  0
   -9.0108    1.1902   -2.0481 H   0  0  0  0  0  0  0  0  0  0  0  0
   -6.8909    0.6564   -0.8756 H   0  0  0  0  0  0  0  0  0  0  0  0
    0.8408   -0.1739    2.2903 H   0  0  0  0  0  0  0  0  0  0  0  0
    3.1188   -0.7882    2.9876 H   0  0  0  0  0  0  0  0  0  0  0  0
  1  2  1  0
  2  3  1  0
  3  4  2  0
  4  5  1  0
  5  6  2  0
  6  7  1  0
  6  8  1  0
  8  9  1  0
  9 10  2  0
  9 11  1  0
 11 12  2  0
 12 13  1  0
 13 14  2  0
 14 15  1  0
 15 16  2  0
 15 17  1  0
 17 18  1  0
 18 19  1  0
 19 20  1  0
 20 21  1  0
 21 22  1  0
 22 23  1  0
 22 24  1  0
 24 25  1  0
 25 26  1  0
 26 27  1  0
 27 28  2  0
 27 29  1  0
 29 30  2  0
 30 31  1  0
 31 32  2  0
 32 33  1  0
 33 34  2  0
 14 35  1  0
 35 36  2  0
  8 37  2  0
 37 38  1  0
 37  3  1  0
 36 11  1  0
 25 18  1  0
 34 29  1  0
  1 39  1  0
  1 40  1  0
  1 41  1  0
  4 42  1  0
  5 43  1  0
  7 44  1  0
 12 45  1  0
 13 46  1  0
 17 47  1  0
 18 48  1  6
 19 49  1  0
 19 50  1  0
 20 51  1  0
 20 52  1  0
 21 53  1  0
 21 54  1  0
 23 55  1  0
 23 56  1  0
 23 57  1  0
 24 58  1  0
 24 59  1  0
 25 60  1  0
 26 61  1  0
 30 62  1  0
 31 63  1  0
 33 64  1  0
 34 65  1  0
 35 66  1  0
 36 67  1  0
M  END
$$$$
