
     RDKit          3D

 52 55  0  0  0  0  0  0  0  0999 V2000
   -8.3738   -1.2291   -0.1821 C   0  0  0  0  0  0  0  0  0  0  0  0
   -6.9568   -1.4622   -0.6965 C   0  0  0  0  0  0  0  0  0  0  0  0
   -6.5719   -2.9352   -0.5681 C   0  0  0  0  0  0  0  0  0  0  0  0
   -6.0211   -0.6131    0.0325 N   0  0  0  0  0  0  0  0  0  0  0  0
   -4.7841   -0.3031   -0.5029 C   0  0  0  0  0  0  0  0  0  0  0  0
   -4.4391   -0.6679   -1.6179 O   0  0  0  0  0  0  0  0  0  0  0  0
   -4.0597    0.4618    0.3784 N   0  0  0  0  0  0  0  0  0  0  0  0
   -2.7218    0.9220    0.2983 C   0  0  0  0  0  0  0  0  0  0  0  0
   -2.3842    1.9160    1.2326 C   0  0  0  0  0  0  0  0  0  0  0  0
   -1.0858    2.4335    1.3173 C   0  0  0  0  0  0  0  0  0  0  0  0
   -0.0654    1.9606    0.4842 C   0  0  0  0  0  0  0  0  0  0  0  0
    1.3161    2.4673    0.5663 C   0  0  0  0  0  0  0  0  0  0  0  0
    1.6340    3.7875    0.8751 C   0  0  0  0  0  0  0  0  0  0  0  0
    2.9045    4.2469    0.9676 N   0  0  0  0  0  0  0  0  0  0  0  0
    3.8655    3.3238    0.7198 C   0  0  0  0  0  0  0  0  0  0  0  0
    3.5930    1.9984    0.3871 C   0  0  0  0  0  0  0  0  0  0  0  0
    4.6352    0.9863    0.1071 C   0  0  0  0  0  0  0  0  0  0  0  0
    5.9034    1.3385   -0.3967 C   0  0  0  0  0  0  0  0  0  0  0  0
    6.9004    0.3820   -0.6582 C   0  0  0  0  0  0  0  0  0  0  0  0
    6.6231   -0.9739   -0.4172 C   0  0  0  0  0  0  0  0  0  0  0  0
    7.3129   -2.2093   -0.5397 C   0  0  0  0  0  0  0  0  0  0  0  0
    8.5697   -2.3420   -0.9927 N   0  0  0  0  0  0  0  0  0  0  0  0
    6.5665   -3.2447   -0.1681 N   0  0  0  0  0  0  0  0  0  0  0  0
    5.4016   -2.6826    0.1964 N   0  0  0  0  0  0  0  0  0  0  0  0
    5.3710   -1.3201    0.0701 C   0  0  0  0  0  0  0  0  0  0  0  0
    4.3670   -0.3810    0.3368 C   0  0  0  0  0  0  0  0  0  0  0  0
    2.3040    1.5658    0.3194 N   0  0  0  0  0  0  0  0  0  0  0  0
   -0.4093    0.9533   -0.4341 C   0  0  0  0  0  0  0  0  0  0  0  0
   -1.7220    0.4614   -0.5782 C   0  0  0  0  0  0  0  0  0  0  0  0
   -1.8706   -0.6406   -1.4458 N   0  0  0  0  0  0  0  0  0  0  0  0
   -8.6568   -0.1764   -0.2904 H   0  0  0  0  0  0  0  0  0  0  0  0
   -8.4594   -1.4856    0.8799 H   0  0  0  0  0  0  0  0  0  0  0  0
   -9.0971   -1.8334   -0.7392 H   0  0  0  0  0  0  0  0  0  0  0  0
   -6.9174   -1.1805   -1.7558 H   0  0  0  0  0  0  0  0  0  0  0  0
   -7.2734   -3.5711   -1.1180 H   0  0  0  0  0  0  0  0  0  0  0  0
   -6.5714   -3.2536    0.4804 H   0  0  0  0  0  0  0  0  0  0  0  0
   -5.5687   -3.1191   -0.9669 H   0  0  0  0  0  0  0  0  0  0  0  0
   -6.0373   -0.7022    1.0380 H   0  0  0  0  0  0  0  0  0  0  0  0
   -4.6328    0.9088    1.0778 H   0  0  0  0  0  0  0  0  0  0  0  0
   -3.1301    2.3029    1.9234 H   0  0  0  0  0  0  0  0  0  0  0  0
   -0.8834    3.1898    2.0728 H   0  0  0  0  0  0  0  0  0  0  0  0
    0.8677    4.5346    1.0512 H   0  0  0  0  0  0  0  0  0  0  0  0
    4.8796    3.6960    0.8140 H   0  0  0  0  0  0  0  0  0  0  0  0
    6.1432    2.3769   -0.6178 H   0  0  0  0  0  0  0  0  0  0  0  0
    7.8683    0.6887   -1.0421 H   0  0  0  0  0  0  0  0  0  0  0  0
    8.9413   -1.6446   -1.6251 H   0  0  0  0  0  0  0  0  0  0  0  0
    8.8339   -3.2877   -1.2476 H   0  0  0  0  0  0  0  0  0  0  0  0
    4.6580   -3.2879    0.5238 H   0  0  0  0  0  0  0  0  0  0  0  0
    3.3985   -0.6995    0.7157 H   0  0  0  0  0  0  0  0  0  0  0  0
    0.3647    0.5418   -1.0838 H   0  0  0  0  0  0  0  0  0  0  0  0
   -1.6930   -1.5093   -0.9502 H   0  0  0  0  0  0  0  0  0  0  0  0
   -2.8368   -0.6890   -1.7968 H   0  0  0  0  0  0  0  0  0  0  0  0
  1  2  1  0
  2  3  1  0
  2  4  1  0
  4  5  1  0
  5  6  2  0
  5  7  1  0
  7  8  1  0
  8  9  2  0
  9 10  1  0
 10 11  2  0
 11 12  1  0
 12 13  2  0
 13 14  1  0
 14 15  2  0
 15 16  1  0
 16 17  1  0
 17 18  2  0
 18 19  1  0
 19 20  2  0
 20 21  1  0
 21 22  1  0
 21 23  2  0
 23 24  1  0
 24 25  1  0
 25 26  2  0
 16 27  2  0
 11 28  1  0
 28 29  2  0
 29 30  1  0
 29  8  1  0
 27 12  1  0
 26 17  1  0
 25 20  1  0
  1 31  1  0
  1 32  1  0
  1 33  1  0
  2 34  1  0
  3 35  1  0
  3 36  1  0
  3 37  1  0
  4 38  1  0
  7 39  1  0
  9 40  1  0
 10 41  1  0
 13 42  1  0
 15 43  1  0
 18 44  1  0
 19 45  1  0
 22 46  1  0
 22 47  1  0
 24 48  1  0
 26 49  1  0
 28 50  1  0
 30 51  1  0
 30 52  1  0
M  END
$$$$
