
     RDKit          3D

 58 62  0  0  0  0  0  0  0  0999 V2000
    6.0495    1.8454   -3.5227 C   0  0  0  0  0  0  0  0  0  0  0  0
    6.0873    1.6773   -2.0285 C   0  0  0  0  0  0  0  0  0  0  0  0
    6.9773    2.1627   -1.3386 O   0  0  0  0  0  0  0  0  0  0  0  0
    5.0638    0.9140   -1.5201 N   0  0  0  0  0  0  0  0  0  0  0  0
    4.8882    0.7342   -0.0800 C   0  0  1  0  0  0  0  0  0  0  0  0
    4.1210    1.9055    0.5293 C   0  0  0  0  0  0  0  0  0  0  0  0
    2.6554    1.5832    0.2219 C   0  0  0  0  0  0  0  0  0  0  0  0
    2.6264    0.1285    0.0565 N   0  0  0  0  0  0  0  0  0  0  0  0
    1.4463   -0.5487    0.2243 C   0  0  0  0  0  0  0  0  0  0  0  0
    1.3895   -1.9333    0.2972 C   0  0  0  0  0  0  0  0  0  0  0  0
    0.1612   -2.5820    0.4473 C   0  0  0  0  0  0  0  0  0  0  0  0
   -1.0301   -1.8547    0.5287 C   0  0  0  0  0  0  0  0  0  0  0  0
   -2.2769   -2.4878    0.6670 N   0  0  0  0  0  0  0  0  0  0  0  0
   -2.3625   -3.6774    1.5838 C   0  0  0  0  0  0  0  0  0  0  0  0
   -2.7779   -4.8021    0.7141 C   0  0  0  0  0  0  0  0  0  0  0  0
   -2.9312   -6.0980    0.7989 N   0  0  0  0  0  0  0  0  0  0  0  0
   -3.3300   -6.4657   -0.4754 C   0  0  0  0  0  0  0  0  0  0  0  0
   -3.3985   -5.3751   -1.3269 C   0  0  0  0  0  0  0  0  0  0  0  0
   -3.0480   -4.3469   -0.5366 N   0  0  0  0  0  0  0  0  0  0  0  0
   -2.8285   -2.9253   -0.6608 C   0  0  0  0  0  0  0  0  0  0  0  0
   -0.8940   -0.4586    0.4160 C   0  0  0  0  0  0  0  0  0  0  0  0
   -1.9990    0.4968    0.4377 C   0  0  0  0  0  0  0  0  0  0  0  0
   -2.0660    1.8628    0.5998 C   0  0  0  0  0  0  0  0  0  0  0  0
   -3.4384    2.1777    0.4735 C   0  0  0  0  0  0  0  0  0  0  0  0
   -4.1071    3.5160    0.5641 C   0  0  0  0  0  0  0  0  0  0  0  0
   -3.9728    4.1159    1.9647 C   0  0  0  0  0  0  0  0  0  0  0  0
   -3.5702    4.4888   -0.4873 C   0  0  0  0  0  0  0  0  0  0  0  0
   -4.1638    1.0762    0.2394 N   0  0  0  0  0  0  0  0  0  0  0  0
   -3.2598    0.0289    0.2211 O   0  0  0  0  0  0  0  0  0  0  0  0
    0.3091    0.1714    0.2748 N   0  0  0  0  0  0  0  0  0  0  0  0
    3.9554   -0.4490    0.2318 C   0  0  0  0  0  0  0  0  0  0  0  0
    6.7876    1.1804   -3.9769 H   0  0  0  0  0  0  0  0  0  0  0  0
    6.2859    2.8834   -3.7725 H   0  0  0  0  0  0  0  0  0  0  0  0
    5.0617    1.6144   -3.9286 H   0  0  0  0  0  0  0  0  0  0  0  0
    4.2573    0.7209   -2.1031 H   0  0  0  0  0  0  0  0  0  0  0  0
    5.8736    0.6076    0.3797 H   0  0  0  0  0  0  0  0  0  0  0  0
    4.2689    1.9140    1.6162 H   0  0  0  0  0  0  0  0  0  0  0  0
    4.4151    2.8846    0.1402 H   0  0  0  0  0  0  0  0  0  0  0  0
    2.3395    2.0673   -0.7091 H   0  0  0  0  0  0  0  0  0  0  0  0
    2.0205    1.9387    1.0419 H   0  0  0  0  0  0  0  0  0  0  0  0
    2.2882   -2.5363    0.2337 H   0  0  0  0  0  0  0  0  0  0  0  0
    0.1599   -3.6687    0.4814 H   0  0  0  0  0  0  0  0  0  0  0  0
   -1.4316   -3.8928    2.1177 H   0  0  0  0  0  0  0  0  0  0  0  0
   -3.1405   -3.4759    2.3278 H   0  0  0  0  0  0  0  0  0  0  0  0
   -3.5408   -7.5002   -0.7122 H   0  0  0  0  0  0  0  0  0  0  0  0
   -3.6579   -5.2811   -2.3716 H   0  0  0  0  0  0  0  0  0  0  0  0
   -2.1506   -2.7556   -1.5041 H   0  0  0  0  0  0  0  0  0  0  0  0
   -3.7987   -2.4530   -0.8419 H   0  0  0  0  0  0  0  0  0  0  0  0
   -1.2336    2.5264    0.7786 H   0  0  0  0  0  0  0  0  0  0  0  0
   -5.1794    3.3839    0.3666 H   0  0  0  0  0  0  0  0  0  0  0  0
   -4.3800    3.4365    2.7214 H   0  0  0  0  0  0  0  0  0  0  0  0
   -2.9256    4.3102    2.2221 H   0  0  0  0  0  0  0  0  0  0  0  0
   -4.5182    5.0628    2.0346 H   0  0  0  0  0  0  0  0  0  0  0  0
   -3.6826    4.0764   -1.4957 H   0  0  0  0  0  0  0  0  0  0  0  0
   -2.5072    4.7044   -0.3331 H   0  0  0  0  0  0  0  0  0  0  0  0
   -4.1140    5.4382   -0.4506 H   0  0  0  0  0  0  0  0  0  0  0  0
    4.0897   -0.7790    1.2687 H   0  0  0  0  0  0  0  0  0  0  0  0
    4.1370   -1.2883   -0.4478 H   0  0  0  0  0  0  0  0  0  0  0  0
  1  2  1  0
  2  3  2  0
  2  4  1  0
  4  5  1  0
  5  6  1  0
  6  7  1  0
  7  8  1  0
  8  9  1  0
  9 10  2  0
 10 11  1  0
 11 12  2  0
 12 13  1  0
 13 14  1  0
 14 15  1  0
 15 16  2  0
 16 17  1  0
 17 18  2  0
 18 19  1  0
 19 20  1  0
 12 21  1  0
 21 22  1  0
 22 23  2  0
 23 24  1  0
 24 25  1  0
 25 26  1  0
 25 27  1  0
 24 28  2  0
 28 29  1  0
 21 30  2  0
  8 31  1  0
 31  5  1  0
 30  9  1  0
 20 13  1  0
 29 22  1  0
 19 15  1  0
  1 32  1  0
  1 33  1  0
  1 34  1  0
  4 35  1  0
  5 36  1  1
  6 37  1  0
  6 38  1  0
  7 39  1  0
  7 40  1  0
 10 41  1  0
 11 42  1  0
 14 43  1  0
 14 44  1  0
 17 45  1  0
 18 46  1  0
 20 47  1  0
 20 48  1  0
 23 49  1  0
 25 50  1  0
 26 51  1  0
 26 52  1  0
 26 53  1  0
 27 54  1  0
 27 55  1  0
 27 56  1  0
 31 57  1  0
 31 58  1  0
M  END
$$$$
