
     RDKit          3D

 55 58  0  0  0  0  0  0  0  0999 V2000
    5.4544    0.3412    2.8034 C   0  0  0  0  0  0  0  0  0  0  0  0
    5.0389    0.1216    1.3735 C   0  0  0  0  0  0  0  0  0  0  0  0
    3.6597    0.1217    1.0744 C   0  0  0  0  0  0  0  0  0  0  0  0
    3.1670   -0.1134   -0.2208 C   0  0  0  0  0  0  0  0  0  0  0  0
    1.7847   -0.0771   -0.4263 N   0  0  0  0  0  0  0  0  0  0  0  0
    0.9675   -0.2274   -1.5429 C   0  0  0  0  0  0  0  0  0  0  0  0
    1.4683   -0.3703   -2.7765 N   0  0  0  0  0  0  0  0  0  0  0  0
    0.5852   -0.5125   -3.7838 C   0  0  0  0  0  0  0  0  0  0  0  0
   -0.7767   -0.5059   -3.6076 C   0  0  0  0  0  0  0  0  0  0  0  0
   -1.8330   -0.6760   -4.9535 Cl  0  0  0  0  0  0  0  0  0  0  0  0
   -1.2239   -0.3315   -2.3043 C   0  0  0  0  0  0  0  0  0  0  0  0
   -2.6037   -0.3675   -2.0296 N   0  0  0  0  0  0  0  0  0  0  0  0
   -3.0449   -0.0338   -0.6741 C   0  0  1  0  0  0  0  0  0  0  0  0
   -3.0399    1.4860   -0.4636 C   0  0  0  0  0  0  0  0  0  0  0  0
   -3.6323    1.8776    0.8897 C   0  0  0  0  0  0  0  0  0  0  0  0
   -5.0348    1.3007    1.1078 C   0  0  1  0  0  0  0  0  0  0  0  0
   -5.9470    2.0036    0.2624 O   0  0  0  0  0  0  0  0  0  0  0  0
   -5.1096   -0.2316    0.8699 C   0  0  0  0  0  0  0  0  0  0  0  0
   -4.3922   -0.9764    2.0163 C   0  0  0  0  0  0  0  0  0  0  0  0
   -6.5790   -0.7024    0.8592 C   0  0  0  0  0  0  0  0  0  0  0  0
   -4.4653   -0.6014   -0.4893 C   0  0  0  0  0  0  0  0  0  0  0  0
   -0.3521   -0.2052   -1.2813 N   0  0  0  0  0  0  0  0  0  0  0  0
    4.1009   -0.3377   -1.2302 C   0  0  0  0  0  0  0  0  0  0  0  0
    5.4743   -0.3299   -0.9595 C   0  0  0  0  0  0  0  0  0  0  0  0
    5.9621   -0.0818    0.3311 C   0  0  0  0  0  0  0  0  0  0  0  0
    7.4083   -0.0522    0.5152 C   0  0  0  0  0  0  0  0  0  0  0  0
    8.3033   -0.8916    0.0295 N   0  0  0  0  0  0  0  0  0  0  0  0
    9.5325   -0.4315    0.4376 N   0  0  0  0  0  0  0  0  0  0  0  0
    9.4116    0.6848    1.1402 N   0  0  0  0  0  0  0  0  0  0  0  0
    8.0961    0.9296    1.1739 N   0  0  0  0  0  0  0  0  0  0  0  0
    5.7859    1.3740    2.9465 H   0  0  0  0  0  0  0  0  0  0  0  0
    4.6230    0.1544    3.4919 H   0  0  0  0  0  0  0  0  0  0  0  0
    6.2564   -0.3470    3.0892 H   0  0  0  0  0  0  0  0  0  0  0  0
    2.9493    0.2991    1.8809 H   0  0  0  0  0  0  0  0  0  0  0  0
    1.2003   -0.0156    0.3944 H   0  0  0  0  0  0  0  0  0  0  0  0
    1.0283   -0.6348   -4.7676 H   0  0  0  0  0  0  0  0  0  0  0  0
   -3.1211    0.1153   -2.7610 H   0  0  0  0  0  0  0  0  0  0  0  0
   -2.3939   -0.5158    0.0649 H   0  0  0  0  0  0  0  0  0  0  0  0
   -2.0179    1.8777   -0.5283 H   0  0  0  0  0  0  0  0  0  0  0  0
   -3.6016    1.9786   -1.2678 H   0  0  0  0  0  0  0  0  0  0  0  0
   -3.6715    2.9722    0.9460 H   0  0  0  0  0  0  0  0  0  0  0  0
   -2.9608    1.5406    1.6876 H   0  0  0  0  0  0  0  0  0  0  0  0
   -5.3472    1.5274    2.1341 H   0  0  0  0  0  0  0  0  0  0  0  0
   -5.7711    1.7716   -0.6634 H   0  0  0  0  0  0  0  0  0  0  0  0
   -4.8717   -0.7650    2.9790 H   0  0  0  0  0  0  0  0  0  0  0  0
   -3.3399   -0.6937    2.1093 H   0  0  0  0  0  0  0  0  0  0  0  0
   -4.4270   -2.0611    1.8624 H   0  0  0  0  0  0  0  0  0  0  0  0
   -7.0863   -0.4288    1.7912 H   0  0  0  0  0  0  0  0  0  0  0  0
   -6.6429   -1.7913    0.7518 H   0  0  0  0  0  0  0  0  0  0  0  0
   -7.1421   -0.2606    0.0300 H   0  0  0  0  0  0  0  0  0  0  0  0
   -5.1037   -0.2423   -1.3087 H   0  0  0  0  0  0  0  0  0  0  0  0
   -4.4340   -1.6940   -0.6018 H   0  0  0  0  0  0  0  0  0  0  0  0
    3.7887   -0.5291   -2.2523 H   0  0  0  0  0  0  0  0  0  0  0  0
    6.1682   -0.5136   -1.7797 H   0  0  0  0  0  0  0  0  0  0  0  0
    7.7524    1.7635    1.6302 H   0  0  0  0  0  0  0  0  0  0  0  0
  1  2  1  0
  2  3  2  0
  3  4  1  0
  4  5  1  0
  5  6  1  0
  6  7  2  0
  7  8  1  0
  8  9  2  0
  9 10  1  0
  9 11  1  0
 11 12  1  0
 12 13  1  0
 13 14  1  0
 14 15  1  0
 15 16  1  0
 16 17  1  0
 16 18  1  0
 18 19  1  0
 18 20  1  0
 18 21  1  0
 11 22  2  0
  4 23  2  0
 23 24  1  0
 24 25  2  0
 25 26  1  0
 26 27  2  0
 27 28  1  0
 28 29  2  0
 29 30  1  0
 25  2  1  0
 30 26  1  0
 22  6  1  0
 21 13  1  0
  1 31  1  0
  1 32  1  0
  1 33  1  0
  3 34  1  0
  5 35  1  0
  8 36  1  0
 12 37  1  0
 13 38  1  1
 14 39  1  0
 14 40  1  0
 15 41  1  0
 15 42  1  0
 16 43  1  1
 17 44  1  0
 19 45  1  0
 19 46  1  0
 19 47  1  0
 20 48  1  0
 20 49  1  0
 20 50  1  0
 21 51  1  0
 21 52  1  0
 23 53  1  0
 24 54  1  0
 30 55  1  0
M  END
$$$$
