
     RDKit          3D

 49 52  0  0  0  0  0  0  0  0999 V2000
    5.3311    2.3363   -0.4112 C   0  0  0  0  0  0  0  0  0  0  0  0
    4.7271    0.9647   -0.5735 C   0  0  0  0  0  0  0  0  0  0  0  0
    3.4110    0.7533   -0.1065 C   0  0  0  0  0  0  0  0  0  0  0  0
    2.7665   -0.4813   -0.2246 C   0  0  0  0  0  0  0  0  0  0  0  0
    1.4730   -0.7384    0.2391 N   0  0  0  0  0  0  0  0  0  0  0  0
    0.5195    0.0122    0.9208 C   0  0  0  0  0  0  0  0  0  0  0  0
    0.7640    1.2589    1.3419 N   0  0  0  0  0  0  0  0  0  0  0  0
   -0.2219    1.8864    2.0131 C   0  0  0  0  0  0  0  0  0  0  0  0
   -1.4518    1.3277    2.2630 C   0  0  0  0  0  0  0  0  0  0  0  0
   -2.7111    2.2750    3.3019 Br  0  0  0  0  0  0  0  0  0  0  0  0
   -1.6329    0.0466    1.7702 C   0  0  0  0  0  0  0  0  0  0  0  0
   -2.8211   -0.6856    1.9078 N   0  0  0  0  0  0  0  0  0  0  0  0
   -3.9304   -0.2092    1.0651 C   0  0  1  0  0  0  0  0  0  0  0  0
   -3.7280   -0.6206   -0.4087 C   0  0  0  0  0  0  0  0  0  0  0  0
   -5.0368   -0.7810   -1.1855 C   0  0  0  0  0  0  0  0  0  0  0  0
   -6.1548    0.0775   -0.6067 C   0  0  1  0  0  0  0  0  0  0  0  0
   -7.3297   -0.0530   -1.3958 O   0  0  0  0  0  0  0  0  0  0  0  0
   -6.4614   -0.2977    0.8457 C   0  0  0  0  0  0  0  0  0  0  0  0
   -5.2359   -0.7936    1.6165 C   0  0  0  0  0  0  0  0  0  0  0  0
   -0.6526   -0.6157    1.1234 N   0  0  0  0  0  0  0  0  0  0  0  0
    3.4796   -1.5228   -0.8302 C   0  0  0  0  0  0  0  0  0  0  0  0
    4.7829   -1.3360   -1.3054 C   0  0  0  0  0  0  0  0  0  0  0  0
    5.4254   -0.0944   -1.1844 C   0  0  0  0  0  0  0  0  0  0  0  0
    6.7854    0.0664   -1.6940 C   0  0  0  0  0  0  0  0  0  0  0  0
    7.3146    1.1047   -2.3134 N   0  0  0  0  0  0  0  0  0  0  0  0
    8.6209    0.7770   -2.5856 N   0  0  0  0  0  0  0  0  0  0  0  0
    8.9081   -0.4359   -2.1386 N   0  0  0  0  0  0  0  0  0  0  0  0
    7.7737   -0.8742   -1.5798 N   0  0  0  0  0  0  0  0  0  0  0  0
    6.3223    2.2717    0.0490 H   0  0  0  0  0  0  0  0  0  0  0  0
    5.4038    2.8353   -1.3825 H   0  0  0  0  0  0  0  0  0  0  0  0
    4.7200    2.9681    0.2427 H   0  0  0  0  0  0  0  0  0  0  0  0
    2.8920    1.5906    0.3528 H   0  0  0  0  0  0  0  0  0  0  0  0
    1.0823   -1.6451    0.0297 H   0  0  0  0  0  0  0  0  0  0  0  0
    0.0316    2.8836    2.3613 H   0  0  0  0  0  0  0  0  0  0  0  0
   -2.5623   -1.6302    1.6197 H   0  0  0  0  0  0  0  0  0  0  0  0
   -4.0171    0.8827    1.1092 H   0  0  0  0  0  0  0  0  0  0  0  0
   -3.1081    0.1414   -0.8988 H   0  0  0  0  0  0  0  0  0  0  0  0
   -3.1638   -1.5584   -0.4900 H   0  0  0  0  0  0  0  0  0  0  0  0
   -5.3458   -1.8348   -1.1695 H   0  0  0  0  0  0  0  0  0  0  0  0
   -4.8783   -0.5442   -2.2446 H   0  0  0  0  0  0  0  0  0  0  0  0
   -5.8572    1.1318   -0.6541 H   0  0  0  0  0  0  0  0  0  0  0  0
   -7.5983   -0.9879   -1.3921 H   0  0  0  0  0  0  0  0  0  0  0  0
   -7.2521   -1.0565    0.8989 H   0  0  0  0  0  0  0  0  0  0  0  0
   -6.8775    0.5855    1.3474 H   0  0  0  0  0  0  0  0  0  0  0  0
   -5.1965   -1.8900    1.5604 H   0  0  0  0  0  0  0  0  0  0  0  0
   -5.3517   -0.5503    2.6800 H   0  0  0  0  0  0  0  0  0  0  0  0
    3.0200   -2.5018   -0.9485 H   0  0  0  0  0  0  0  0  0  0  0  0
    5.2717   -2.1750   -1.7955 H   0  0  0  0  0  0  0  0  0  0  0  0
    7.7506   -1.7842   -1.1400 H   0  0  0  0  0  0  0  0  0  0  0  0
  1  2  1  0
  2  3  2  0
  3  4  1  0
  4  5  1  0
  5  6  1  0
  6  7  2  0
  7  8  1  0
  8  9  2  0
  9 10  1  0
  9 11  1  0
 11 12  1  0
 12 13  1  0
 13 14  1  0
 14 15  1  0
 15 16  1  0
 16 17  1  0
 16 18  1  0
 18 19  1  0
 11 20  2  0
  4 21  2  0
 21 22  1  0
 22 23  2  0
 23 24  1  0
 24 25  2  0
 25 26  1  0
 26 27  2  0
 27 28  1  0
 23  2  1  0
 28 24  1  0
 20  6  1  0
 19 13  1  0
  1 29  1  0
  1 30  1  0
  1 31  1  0
  3 32  1  0
  5 33  1  0
  8 34  1  0
 12 35  1  0
 13 36  1  6
 14 37  1  0
 14 38  1  0
 15 39  1  0
 15 40  1  0
 16 41  1  1
 17 42  1  0
 18 43  1  0
 18 44  1  0
 19 45  1  0
 19 46  1  0
 21 47  1  0
 22 48  1  0
 28 49  1  0
M  END
$$$$
