
     RDKit          3D

 49 52  0  0  0  0  0  0  0  0999 V2000
    5.3190    2.2449   -0.9824 C   0  0  0  0  0  0  0  0  0  0  0  0
    4.7360    0.8609   -0.8513 C   0  0  0  0  0  0  0  0  0  0  0  0
    3.4286    0.7320   -0.3325 C   0  0  0  0  0  0  0  0  0  0  0  0
    2.8033   -0.5093   -0.1848 C   0  0  0  0  0  0  0  0  0  0  0  0
    1.5183   -0.6834    0.3375 N   0  0  0  0  0  0  0  0  0  0  0  0
    0.5546    0.1787    0.8519 C   0  0  0  0  0  0  0  0  0  0  0  0
    0.7725    1.4931    0.9827 N   0  0  0  0  0  0  0  0  0  0  0  0
   -0.2240    2.2323    1.5111 C   0  0  0  0  0  0  0  0  0  0  0  0
   -1.4384    1.7183    1.8968 C   0  0  0  0  0  0  0  0  0  0  0  0
   -2.6058    2.7449    2.6285 Cl  0  0  0  0  0  0  0  0  0  0  0  0
   -1.5918    0.3539    1.7051 C   0  0  0  0  0  0  0  0  0  0  0  0
   -2.7545   -0.3606    2.0261 N   0  0  0  0  0  0  0  0  0  0  0  0
   -3.9220   -0.0695    1.1801 C   0  0  1  0  0  0  0  0  0  0  0  0
   -3.7566   -0.6762   -0.2283 C   0  0  0  0  0  0  0  0  0  0  0  0
   -5.0849   -1.0113   -0.9099 C   0  0  0  0  0  0  0  0  0  0  0  0
   -6.2265   -0.1374   -0.4062 C   0  0  1  0  0  0  0  0  0  0  0  0
   -7.4137   -0.4745   -1.1113 O   0  0  0  0  0  0  0  0  0  0  0  0
   -6.4499   -0.3193    1.0974 C   0  0  0  0  0  0  0  0  0  0  0  0
   -5.1679   -0.6355    1.8707 C   0  0  0  0  0  0  0  0  0  0  0  0
   -0.6001   -0.4135    1.2062 N   0  0  0  0  0  0  0  0  0  0  0  0
    3.5265   -1.6431   -0.5743 C   0  0  0  0  0  0  0  0  0  0  0  0
    4.8212   -1.5400   -1.0963 C   0  0  0  0  0  0  0  0  0  0  0  0
    5.4448   -0.2914   -1.2417 C   0  0  0  0  0  0  0  0  0  0  0  0
    6.7962   -0.2200   -1.7930 C   0  0  0  0  0  0  0  0  0  0  0  0
    7.3030    0.6795   -2.6152 N   0  0  0  0  0  0  0  0  0  0  0  0
    8.6105    0.3197   -2.8354 N   0  0  0  0  0  0  0  0  0  0  0  0
    8.9206   -0.7759   -2.1594 N   0  0  0  0  0  0  0  0  0  0  0  0
    7.7994   -1.1072   -1.5080 N   0  0  0  0  0  0  0  0  0  0  0  0
    6.3160    2.2901   -0.5323 H   0  0  0  0  0  0  0  0  0  0  0  0
    5.3732    2.5347   -2.0363 H   0  0  0  0  0  0  0  0  0  0  0  0
    4.7047    2.9891   -0.4639 H   0  0  0  0  0  0  0  0  0  0  0  0
    2.9014    1.6387   -0.0474 H   0  0  0  0  0  0  0  0  0  0  0  0
    1.1464   -1.6218    0.3364 H   0  0  0  0  0  0  0  0  0  0  0  0
    0.0041    3.2881    1.6247 H   0  0  0  0  0  0  0  0  0  0  0  0
   -2.4867   -1.3395    1.9138 H   0  0  0  0  0  0  0  0  0  0  0  0
   -4.0720    1.0109    1.0763 H   0  0  0  0  0  0  0  0  0  0  0  0
   -3.2012    0.0376   -0.8505 H   0  0  0  0  0  0  0  0  0  0  0  0
   -3.1441   -1.5865   -0.2031 H   0  0  0  0  0  0  0  0  0  0  0  0
   -5.3334   -2.0662   -0.7312 H   0  0  0  0  0  0  0  0  0  0  0  0
   -4.9823   -0.9217   -1.9982 H   0  0  0  0  0  0  0  0  0  0  0  0
   -5.9998    0.9130   -0.6263 H   0  0  0  0  0  0  0  0  0  0  0  0
   -8.1279    0.0971   -0.7800 H   0  0  0  0  0  0  0  0  0  0  0  0
   -7.1913   -1.1049    1.2907 H   0  0  0  0  0  0  0  0  0  0  0  0
   -6.8976    0.6021    1.4915 H   0  0  0  0  0  0  0  0  0  0  0  0
   -5.0674   -1.7251    1.9680 H   0  0  0  0  0  0  0  0  0  0  0  0
   -5.2545   -0.2484    2.8936 H   0  0  0  0  0  0  0  0  0  0  0  0
    3.0813   -2.6316   -0.4837 H   0  0  0  0  0  0  0  0  0  0  0  0
    5.3178   -2.4551   -1.4111 H   0  0  0  0  0  0  0  0  0  0  0  0
    7.7949   -1.9110   -0.8950 H   0  0  0  0  0  0  0  0  0  0  0  0
  1  2  1  0
  2  3  2  0
  3  4  1  0
  4  5  1  0
  5  6  1  0
  6  7  2  0
  7  8  1  0
  8  9  2  0
  9 10  1  0
  9 11  1  0
 11 12  1  0
 12 13  1  0
 13 14  1  0
 14 15  1  0
 15 16  1  0
 16 17  1  0
 16 18  1  0
 18 19  1  0
 11 20  2  0
  4 21  2  0
 21 22  1  0
 22 23  2  0
 23 24  1  0
 24 25  2  0
 25 26  1  0
 26 27  2  0
 27 28  1  0
 23  2  1  0
 28 24  1  0
 20  6  1  0
 19 13  1  0
  1 29  1  0
  1 30  1  0
  1 31  1  0
  3 32  1  0
  5 33  1  0
  8 34  1  0
 12 35  1  0
 13 36  1  6
 14 37  1  0
 14 38  1  0
 15 39  1  0
 15 40  1  0
 16 41  1  1
 17 42  1  0
 18 43  1  0
 18 44  1  0
 19 45  1  0
 19 46  1  0
 21 47  1  0
 22 48  1  0
 28 49  1  0
M  END
$$$$
