
     RDKit          3D

 49 51  0  0  0  0  0  0  0  0999 V2000
   -8.7406    0.1077    0.5183 C   0  0  0  0  0  0  0  0  0  0  0  0
   -7.3386    0.6482    0.7667 C   0  0  0  0  0  0  0  0  0  0  0  0
   -6.2517   -0.3559    0.3793 C   0  0  0  0  0  0  0  0  0  0  0  0
   -6.3875   -1.5232    1.1958 O   0  0  0  0  0  0  0  0  0  0  0  0
   -4.8495    0.2376    0.5770 C   0  0  0  0  0  0  0  0  0  0  0  0
   -3.9005   -0.7090    0.0634 O   0  0  0  0  0  0  0  0  0  0  0  0
   -2.5775   -0.3430    0.1036 C   0  0  0  0  0  0  0  0  0  0  0  0
   -2.0601    0.7842    0.7338 C   0  0  0  0  0  0  0  0  0  0  0  0
   -0.6820    1.0213    0.6957 C   0  0  0  0  0  0  0  0  0  0  0  0
   -0.1760    2.1351    1.3199 O   0  0  0  0  0  0  0  0  0  0  0  0
    0.2113    0.1504    0.0344 C   0  0  0  0  0  0  0  0  0  0  0  0
    1.6054    0.3806   -0.0127 C   0  0  0  0  0  0  0  0  0  0  0  0
    2.4904   -0.4898   -0.6719 C   0  0  0  0  0  0  0  0  0  0  0  0
    3.9376   -0.2212   -0.7034 C   0  0  0  0  0  0  0  0  0  0  0  0
    4.4347    1.0168   -1.1416 C   0  0  0  0  0  0  0  0  0  0  0  0
    5.8094    1.2745   -1.1716 C   0  0  0  0  0  0  0  0  0  0  0  0
    6.7176    0.2992   -0.7560 C   0  0  0  0  0  0  0  0  0  0  0  0
    8.4959    0.6152   -0.7849 S   0  0  0  0  0  0  0  0  0  0  0  0
    8.7041    0.8762    0.9954 C   0  0  0  0  0  0  0  0  0  0  0  0
    8.7193    2.0842   -1.5245 O   0  0  0  0  0  0  0  0  0  0  0  0
    6.2401   -0.9416   -0.3258 C   0  0  0  0  0  0  0  0  0  0  0  0
    4.8644   -1.1960   -0.2987 C   0  0  0  0  0  0  0  0  0  0  0  0
    1.9500   -1.6190   -1.2971 C   0  0  0  0  0  0  0  0  0  0  0  0
    0.5752   -1.8682   -1.2637 C   0  0  0  0  0  0  0  0  0  0  0  0
   -0.3101   -0.9955   -0.6028 C   0  0  0  0  0  0  0  0  0  0  0  0
   -1.7001   -1.2193   -0.5536 C   0  0  0  0  0  0  0  0  0  0  0  0
   -2.2258   -2.3301   -1.1747 O   0  0  0  0  0  0  0  0  0  0  0  0
   -8.8783   -0.1529   -0.5358 H   0  0  0  0  0  0  0  0  0  0  0  0
   -8.9380   -0.7833    1.1225 H   0  0  0  0  0  0  0  0  0  0  0  0
   -9.4874    0.8635    0.7811 H   0  0  0  0  0  0  0  0  0  0  0  0
   -7.2518    0.8983    1.8311 H   0  0  0  0  0  0  0  0  0  0  0  0
   -7.2096    1.5755    0.1968 H   0  0  0  0  0  0  0  0  0  0  0  0
   -6.3778   -0.6747   -0.6619 H   0  0  0  0  0  0  0  0  0  0  0  0
   -5.6084   -2.0821    1.0203 H   0  0  0  0  0  0  0  0  0  0  0  0
   -4.7636    1.1836    0.0295 H   0  0  0  0  0  0  0  0  0  0  0  0
   -4.6667    0.3889    1.6477 H   0  0  0  0  0  0  0  0  0  0  0  0
   -2.7023    1.4804    1.2585 H   0  0  0  0  0  0  0  0  0  0  0  0
   -0.8964    2.6233    1.7496 H   0  0  0  0  0  0  0  0  0  0  0  0
    2.0074    1.2603    0.4896 H   0  0  0  0  0  0  0  0  0  0  0  0
    3.7498    1.7930   -1.4791 H   0  0  0  0  0  0  0  0  0  0  0  0
    6.1618    2.2419   -1.5248 H   0  0  0  0  0  0  0  0  0  0  0  0
    8.5072   -0.0554    1.5311 H   0  0  0  0  0  0  0  0  0  0  0  0
    9.7360    1.1843    1.1802 H   0  0  0  0  0  0  0  0  0  0  0  0
    8.0264    1.6607    1.3414 H   0  0  0  0  0  0  0  0  0  0  0  0
    6.9265   -1.7231   -0.0096 H   0  0  0  0  0  0  0  0  0  0  0  0
    4.5156   -2.1656    0.0525 H   0  0  0  0  0  0  0  0  0  0  0  0
    2.5944   -2.3136   -1.8319 H   0  0  0  0  0  0  0  0  0  0  0  0
    0.1899   -2.7547   -1.7648 H   0  0  0  0  0  0  0  0  0  0  0  0
   -3.1902   -2.2680   -1.0443 H   0  0  0  0  0  0  0  0  0  0  0  0
  1  2  1  0
  2  3  1  0
  3  4  1  0
  3  5  1  0
  5  6  1  0
  6  7  1  0
  7  8  2  0
  8  9  1  0
  9 10  1  0
  9 11  2  0
 11 12  1  0
 12 13  2  0
 13 14  1  0
 14 15  2  0
 15 16  1  0
 16 17  2  0
 17 18  1  0
 18 19  1  0
 18 20  1  0
 17 21  1  0
 21 22  2  0
 13 23  1  0
 23 24  2  0
 24 25  1  0
 25 26  2  0
 26 27  1  0
 26  7  1  0
 25 11  1  0
 22 14  1  0
  1 28  1  0
  1 29  1  0
  1 30  1  0
  2 31  1  0
  2 32  1  0
  3 33  1  0
  4 34  1  0
  5 35  1  0
  5 36  1  0
  8 37  1  0
 10 38  1  0
 12 39  1  0
 15 40  1  0
 16 41  1  0
 19 42  1  0
 19 43  1  0
 19 44  1  0
 21 45  1  0
 22 46  1  0
 23 47  1  0
 24 48  1  0
 27 49  1  0
M  CHG  2  18   1  20  -1
M  END
$$$$
