
     RDKit          3D

 39 41  0  0  0  0  0  0  0  0999 V2000
    5.1902   -0.9372   -0.9258 C   0  0  0  0  0  0  0  0  0  0  0  0
    3.9045   -1.1738   -1.4852 O   0  0  0  0  0  0  0  0  0  0  0  0
    2.8605   -0.4104   -1.0297 C   0  0  0  0  0  0  0  0  0  0  0  0
    2.9699    0.5416   -0.0131 C   0  0  0  0  0  0  0  0  0  0  0  0
    1.8494    1.2637    0.4063 C   0  0  0  0  0  0  0  0  0  0  0  0
    0.5852    1.0410   -0.1601 C   0  0  0  0  0  0  0  0  0  0  0  0
   -0.5751    1.7929    0.3379 C   0  0  0  0  0  0  0  0  0  0  0  0
   -0.4553    3.1383    0.2651 N   0  0  0  0  0  0  0  0  0  0  0  0
   -1.4847    3.9247    0.6926 N   0  0  0  0  0  0  0  0  0  0  0  0
   -2.5995    3.3551    1.1828 C   0  0  0  0  0  0  0  0  0  0  0  0
   -3.6511    4.1636    1.5757 N   0  0  0  0  0  0  0  0  0  0  0  0
   -2.7762    2.0370    1.2845 N   0  0  0  0  0  0  0  0  0  0  0  0
   -1.7418    1.2498    0.8772 C   0  0  0  0  0  0  0  0  0  0  0  0
   -1.9744   -0.1909    1.1024 C   0  0  0  0  0  0  0  0  0  0  0  0
   -3.1385   -0.8080    0.6095 C   0  0  0  0  0  0  0  0  0  0  0  0
   -3.3753   -2.1709    0.8062 C   0  0  0  0  0  0  0  0  0  0  0  0
   -2.4543   -2.9424    1.5093 C   0  0  0  0  0  0  0  0  0  0  0  0
   -1.3024   -2.3510    2.0216 C   0  0  0  0  0  0  0  0  0  0  0  0
   -1.0679   -0.9869    1.8250 C   0  0  0  0  0  0  0  0  0  0  0  0
    0.4919    0.0905   -1.1929 C   0  0  0  0  0  0  0  0  0  0  0  0
   -0.7420   -0.1037   -1.7631 O   0  0  0  0  0  0  0  0  0  0  0  0
    1.6147   -0.6295   -1.6512 C   0  0  0  0  0  0  0  0  0  0  0  0
    1.4858   -1.6328   -2.7684 C   0  0  0  0  0  0  0  0  0  0  0  0
    5.5210    0.0895   -1.1143 H   0  0  0  0  0  0  0  0  0  0  0  0
    5.2031   -1.1693    0.1441 H   0  0  0  0  0  0  0  0  0  0  0  0
    5.8978   -1.6100   -1.4198 H   0  0  0  0  0  0  0  0  0  0  0  0
    3.9144    0.7516    0.4782 H   0  0  0  0  0  0  0  0  0  0  0  0
    1.9666    2.0054    1.1959 H   0  0  0  0  0  0  0  0  0  0  0  0
   -3.6231    5.0440    1.0804 H   0  0  0  0  0  0  0  0  0  0  0  0
   -4.5134    3.6374    1.5396 H   0  0  0  0  0  0  0  0  0  0  0  0
   -3.8699   -0.2170    0.0605 H   0  0  0  0  0  0  0  0  0  0  0  0
   -4.2816   -2.6252    0.4146 H   0  0  0  0  0  0  0  0  0  0  0  0
   -2.6389   -4.0018    1.6671 H   0  0  0  0  0  0  0  0  0  0  0  0
   -0.5874   -2.9482    2.5817 H   0  0  0  0  0  0  0  0  0  0  0  0
   -0.1688   -0.5482    2.2528 H   0  0  0  0  0  0  0  0  0  0  0  0
   -0.7817   -1.0000   -2.1344 H   0  0  0  0  0  0  0  0  0  0  0  0
    0.8400   -1.2453   -3.5637 H   0  0  0  0  0  0  0  0  0  0  0  0
    2.4449   -1.8577   -3.2446 H   0  0  0  0  0  0  0  0  0  0  0  0
    1.0635   -2.5660   -2.3828 H   0  0  0  0  0  0  0  0  0  0  0  0
  1  2  1  0
  2  3  1  0
  3  4  2  0
  4  5  1  0
  5  6  2  0
  6  7  1  0
  7  8  2  0
  8  9  1  0
  9 10  2  0
 10 11  1  0
 10 12  1  0
 12 13  2  0
 13 14  1  0
 14 15  2  0
 15 16  1  0
 16 17  2  0
 17 18  1  0
 18 19  2  0
  6 20  1  0
 20 21  1  0
 20 22  2  0
 22 23  1  0
 22  3  1  0
 13  7  1  0
 19 14  1  0
  1 24  1  0
  1 25  1  0
  1 26  1  0
  4 27  1  0
  5 28  1  0
 11 29  1  0
 11 30  1  0
 15 31  1  0
 16 32  1  0
 17 33  1  0
 18 34  1  0
 19 35  1  0
 21 36  1  0
 23 37  1  0
 23 38  1  0
 23 39  1  0
M  END
$$$$
