
     RDKit          3D

 43 45  0  0  0  0  0  0  0  0999 V2000
   -4.9397   -2.5855    1.5424 O   0  0  0  0  0  0  0  0  0  0  0  0
   -5.2279   -2.4133    0.3635 C   0  0  0  0  0  0  0  0  0  0  0  0
   -4.9462   -1.1415   -0.3461 C   0  0  0  0  0  0  0  0  0  0  0  0
   -5.8344   -0.7218   -1.3523 C   0  0  0  0  0  0  0  0  0  0  0  0
   -7.2291   -1.6338   -1.8209 Cl  0  0  0  0  0  0  0  0  0  0  0  0
   -5.6360    0.4985   -2.0019 C   0  0  0  0  0  0  0  0  0  0  0  0
   -4.5631    1.3095   -1.6487 C   0  0  0  0  0  0  0  0  0  0  0  0
   -3.6719    0.8957   -0.6585 C   0  0  0  0  0  0  0  0  0  0  0  0
   -3.8233   -0.3456   -0.0084 C   0  0  0  0  0  0  0  0  0  0  0  0
   -2.8193   -0.7964    1.0462 C   0  0  0  0  0  0  0  0  0  0  0  0
   -1.4366   -0.2112    0.9441 C   0  0  0  0  0  0  0  0  0  0  0  0
   -0.9255    0.6784    1.8142 C   0  0  0  0  0  0  0  0  0  0  0  0
    0.4197    1.1828    1.6735 C   0  0  0  0  0  0  0  0  0  0  0  0
    1.2091    0.7507    0.6762 C   0  0  0  0  0  0  0  0  0  0  0  0
    2.6256    1.2455    0.4673 C   0  0  0  0  0  0  0  0  0  0  0  0
    3.6180    0.5670    1.3147 N   0  0  0  0  0  0  0  0  0  0  0  0
    4.9372    1.2349    1.2368 C   0  0  0  0  0  0  0  0  0  0  0  0
    5.6963    0.9683   -0.0748 C   0  0  0  0  0  0  0  0  0  0  0  0
    5.8530   -0.4348   -0.3135 O   0  0  0  0  0  0  0  0  0  0  0  0
    4.5842   -1.0997   -0.3269 C   0  0  0  0  0  0  0  0  0  0  0  0
    3.8121   -0.8616    0.9817 C   0  0  0  0  0  0  0  0  0  0  0  0
    0.7015   -0.1626   -0.2244 N   0  0  0  0  0  0  0  0  0  0  0  0
   -0.5627   -0.6974   -0.1687 C   0  0  0  0  0  0  0  0  0  0  0  0
   -0.9443   -1.5211   -0.9934 O   0  0  0  0  0  0  0  0  0  0  0  0
   -5.7391   -3.2057   -0.2065 H   0  0  0  0  0  0  0  0  0  0  0  0
   -6.3238    0.8308   -2.7761 H   0  0  0  0  0  0  0  0  0  0  0  0
   -4.4160    2.2655   -2.1462 H   0  0  0  0  0  0  0  0  0  0  0  0
   -2.8447    1.5589   -0.4118 H   0  0  0  0  0  0  0  0  0  0  0  0
   -3.2487   -0.5647    2.0295 H   0  0  0  0  0  0  0  0  0  0  0  0
   -2.6938   -1.8849    0.9983 H   0  0  0  0  0  0  0  0  0  0  0  0
   -1.5101    1.0424    2.6540 H   0  0  0  0  0  0  0  0  0  0  0  0
    0.7790    1.8988    2.4066 H   0  0  0  0  0  0  0  0  0  0  0  0
    2.6305    2.3173    0.7107 H   0  0  0  0  0  0  0  0  0  0  0  0
    2.8829    1.1898   -0.5975 H   0  0  0  0  0  0  0  0  0  0  0  0
    5.5440    0.8574    2.0702 H   0  0  0  0  0  0  0  0  0  0  0  0
    4.8352    2.3140    1.4018 H   0  0  0  0  0  0  0  0  0  0  0  0
    5.1929    1.4250   -0.9344 H   0  0  0  0  0  0  0  0  0  0  0  0
    6.6986    1.4045   -0.0135 H   0  0  0  0  0  0  0  0  0  0  0  0
    4.7773   -2.1704   -0.4493 H   0  0  0  0  0  0  0  0  0  0  0  0
    4.0131   -0.7680   -1.2012 H   0  0  0  0  0  0  0  0  0  0  0  0
    2.8615   -1.4041    0.9649 H   0  0  0  0  0  0  0  0  0  0  0  0
    4.3886   -1.3074    1.8033 H   0  0  0  0  0  0  0  0  0  0  0  0
    1.2762   -0.5040   -0.9835 H   0  0  0  0  0  0  0  0  0  0  0  0
  1  2  2  0
  2  3  1  0
  3  4  2  0
  4  5  1  0
  4  6  1  0
  6  7  2  0
  7  8  1  0
  8  9  2  0
  9 10  1  0
 10 11  1  0
 11 12  2  0
 12 13  1  0
 13 14  2  0
 14 15  1  0
 15 16  1  0
 16 17  1  0
 17 18  1  0
 18 19  1  0
 19 20  1  0
 20 21  1  0
 14 22  1  0
 22 23  1  0
 23 24  2  0
  9  3  1  0
 23 11  1  0
 21 16  1  0
  2 25  1  0
  6 26  1  0
  7 27  1  0
  8 28  1  0
 10 29  1  0
 10 30  1  0
 12 31  1  0
 13 32  1  0
 15 33  1  0
 15 34  1  0
 17 35  1  0
 17 36  1  0
 18 37  1  0
 18 38  1  0
 20 39  1  0
 20 40  1  0
 21 41  1  0
 21 42  1  0
 22 43  1  0
M  END
$$$$
