
     RDKit          3D

 53 54  0  0  0  0  0  0  0  0999 V2000
    5.6584    2.7662   -1.6139 C   0  0  0  0  0  0  0  0  0  0  0  0
    4.5412    1.8437   -2.0965 C   0  0  0  0  0  0  0  0  0  0  0  0
    4.7473    1.6820   -3.4502 F   0  0  0  0  0  0  0  0  0  0  0  0
    4.5477    0.4939   -1.3834 C   0  0  0  0  0  0  0  0  0  0  0  0
    4.7539   -0.5736   -1.9609 O   0  0  0  0  0  0  0  0  0  0  0  0
    4.3752    0.5224    0.3757 S   0  0  0  0  0  0  0  0  0  0  0  0
    2.6034    0.3987    0.4830 C   0  0  0  0  0  0  0  0  0  0  0  0
    1.9168    1.5788    0.6828 N   0  0  0  0  0  0  0  0  0  0  0  0
    1.5958    2.3384   -0.4971 N   0  0  0  0  0  0  0  0  0  0  0  0
    0.2710    2.4397   -0.6379 C   0  0  0  0  0  0  0  0  0  0  0  0
   -0.8439    1.8059   -0.2430 C   0  0  0  0  0  0  0  0  0  0  0  0
   -1.1909    0.6526    0.3641 C   0  0  0  0  0  0  0  0  0  0  0  0
   -2.6100    0.5314    0.6288 N   0  0  0  0  0  0  0  0  0  0  0  0
   -3.2340    1.4532    1.5866 C   0  0  0  0  0  0  0  0  0  0  0  0
   -4.5851    0.9006    2.0171 C   0  0  0  0  0  0  0  0  0  0  0  0
   -5.5464    0.7463    0.8243 C   0  0  0  0  0  0  0  0  0  0  0  0
   -6.4747   -0.4369    1.0502 C   0  0  0  0  0  0  0  0  0  0  0  0
   -7.1539   -0.2977    2.2136 F   0  0  0  0  0  0  0  0  0  0  0  0
   -5.8124   -1.6157    1.0966 F   0  0  0  0  0  0  0  0  0  0  0  0
   -7.3949   -0.5255    0.0574 F   0  0  0  0  0  0  0  0  0  0  0  0
   -4.8015    0.6291   -0.5145 C   0  0  0  0  0  0  0  0  0  0  0  0
   -3.4717   -0.1073   -0.3780 C   0  0  0  0  0  0  0  0  0  0  0  0
   -0.5089   -0.4642    0.6919 C   0  0  0  0  0  0  0  0  0  0  0  0
    0.6882   -1.0622    0.7156 C   0  0  0  0  0  0  0  0  0  0  0  0
    2.0041   -0.8180    0.5542 C   0  0  0  0  0  0  0  0  0  0  0  0
    2.8228   -2.0453    0.5422 C   0  0  0  0  0  0  0  0  0  0  0  0
    3.0881   -2.7365   -0.5796 C   0  0  0  0  0  0  0  0  0  0  0  0
    4.0002   -4.1932   -0.4955 S   0  0  0  0  0  0  0  0  0  0  0  0
    2.8442   -5.3447   -0.0489 N   0  0  0  0  0  0  0  0  0  0  0  0
    4.4133   -4.5915   -1.8200 O   0  0  0  0  0  0  0  0  0  0  0  0
    4.9266   -4.1666    0.6167 O   0  0  0  0  0  0  0  0  0  0  0  0
    5.7216    3.6409   -2.2665 H   0  0  0  0  0  0  0  0  0  0  0  0
    6.6285    2.2581   -1.6513 H   0  0  0  0  0  0  0  0  0  0  0  0
    5.4978    3.1172   -0.5931 H   0  0  0  0  0  0  0  0  0  0  0  0
    3.5694    2.3324   -2.0028 H   0  0  0  0  0  0  0  0  0  0  0  0
    2.4857    2.1858    1.2663 H   0  0  0  0  0  0  0  0  0  0  0  0
    0.0009    3.3112   -1.2429 H   0  0  0  0  0  0  0  0  0  0  0  0
   -1.7142    2.4010   -0.5212 H   0  0  0  0  0  0  0  0  0  0  0  0
   -2.5933    1.5561    2.4733 H   0  0  0  0  0  0  0  0  0  0  0  0
   -3.3559    2.4531    1.1489 H   0  0  0  0  0  0  0  0  0  0  0  0
   -5.0388    1.5615    2.7674 H   0  0  0  0  0  0  0  0  0  0  0  0
   -4.4307   -0.0676    2.5099 H   0  0  0  0  0  0  0  0  0  0  0  0
   -6.1812    1.6443    0.7652 H   0  0  0  0  0  0  0  0  0  0  0  0
   -5.4232    0.1368   -1.2704 H   0  0  0  0  0  0  0  0  0  0  0  0
   -4.6040    1.6391   -0.8938 H   0  0  0  0  0  0  0  0  0  0  0  0
   -3.6422   -1.1475   -0.0854 H   0  0  0  0  0  0  0  0  0  0  0  0
   -2.9757   -0.1283   -1.3558 H   0  0  0  0  0  0  0  0  0  0  0  0
   -1.2328   -1.2001    1.0630 H   0  0  0  0  0  0  0  0  0  0  0  0
    0.5232   -2.1180    0.9611 H   0  0  0  0  0  0  0  0  0  0  0  0
    3.1927   -2.3648    1.5137 H   0  0  0  0  0  0  0  0  0  0  0  0
    2.7590   -2.4054   -1.5563 H   0  0  0  0  0  0  0  0  0  0  0  0
    2.5549   -5.2141    0.9191 H   0  0  0  0  0  0  0  0  0  0  0  0
    2.0884   -5.3956   -0.7298 H   0  0  0  0  0  0  0  0  0  0  0  0
  1  2  1  0
  2  3  1  0
  2  4  1  0
  4  5  2  0
  4  6  1  0
  6  7  1  0
  7  8  1  0
  8  9  1  0
  9 10  2  0
 10 11  1  0
 11 12  2  0
 12 13  1  0
 13 14  1  0
 14 15  1  0
 15 16  1  0
 16 17  1  0
 17 18  1  0
 17 19  1  0
 17 20  1  0
 16 21  1  0
 21 22  1  0
 12 23  1  0
 23 24  2  0
 24 25  1  0
 25 26  1  0
 26 27  2  3
 27 28  1  0
 28 29  1  0
 28 30  2  0
 28 31  2  0
 25  7  2  0
 22 13  1  0
  1 32  1  0
  1 33  1  0
  1 34  1  0
  2 35  1  0
  8 36  1  0
 10 37  1  0
 11 38  1  0
 14 39  1  0
 14 40  1  0
 15 41  1  0
 15 42  1  0
 16 43  1  0
 21 44  1  0
 21 45  1  0
 22 46  1  0
 22 47  1  0
 23 48  1  0
 24 49  1  0
 26 50  1  0
 27 51  1  0
 29 52  1  0
 29 53  1  0
M  END
$$$$
