
     RDKit          3D

 50 51  0  0  0  0  0  0  0  0999 V2000
    3.3879   -2.1643    2.9127 C   0  0  0  0  0  0  0  0  0  0  0  0
    4.3991   -1.2180    2.3257 C   0  0  0  0  0  0  0  0  0  0  0  0
    5.1154   -0.5026    3.0211 O   0  0  0  0  0  0  0  0  0  0  0  0
    4.5306   -1.2075    0.5698 S   0  0  0  0  0  0  0  0  0  0  0  0
    2.8269   -0.8625    0.1573 C   0  0  0  0  0  0  0  0  0  0  0  0
    2.0700   -1.9531   -0.2019 N   0  0  0  0  0  0  0  0  0  0  0  0
    1.7828   -2.0827   -1.6230 N   0  0  0  0  0  0  0  0  0  0  0  0
    0.4640   -2.2461   -1.7599 C   0  0  0  0  0  0  0  0  0  0  0  0
   -0.6494   -1.7354   -1.2126 C   0  0  0  0  0  0  0  0  0  0  0  0
   -0.9515   -0.6851   -0.4220 C   0  0  0  0  0  0  0  0  0  0  0  0
   -2.3733   -0.5709   -0.1855 N   0  0  0  0  0  0  0  0  0  0  0  0
   -2.8830   -0.5027    1.1863 C   0  0  0  0  0  0  0  0  0  0  0  0
   -4.2587   -1.1639    1.2396 C   0  0  0  0  0  0  0  0  0  0  0  0
   -5.2370   -0.5899    0.2028 C   0  0  0  0  0  0  0  0  0  0  0  0
   -5.7463    0.7863    0.6034 C   0  0  0  0  0  0  0  0  0  0  0  0
   -6.6505    1.2433   -0.2948 F   0  0  0  0  0  0  0  0  0  0  0  0
   -4.7748    1.7131    0.7011 F   0  0  0  0  0  0  0  0  0  0  0  0
   -6.3749    0.7307    1.8017 F   0  0  0  0  0  0  0  0  0  0  0  0
   -4.5955   -0.5815   -1.1933 C   0  0  0  0  0  0  0  0  0  0  0  0
   -3.2129    0.0661   -1.2060 C   0  0  0  0  0  0  0  0  0  0  0  0
   -0.1982    0.3214    0.0692 C   0  0  0  0  0  0  0  0  0  0  0  0
    1.0425    0.7823    0.2745 C   0  0  0  0  0  0  0  0  0  0  0  0
    2.3367    0.3977    0.2947 C   0  0  0  0  0  0  0  0  0  0  0  0
    3.2654    1.5206    0.5372 C   0  0  0  0  0  0  0  0  0  0  0  0
    3.9810    2.0524   -0.4666 C   0  0  0  0  0  0  0  0  0  0  0  0
    4.9834    3.4184   -0.1796 S   0  0  0  0  0  0  0  0  0  0  0  0
    5.1230    4.1380   -1.7009 N   0  0  0  0  0  0  0  0  0  0  0  0
    6.3229    2.9890    0.1520 O   0  0  0  0  0  0  0  0  0  0  0  0
    4.2765    4.3919    0.6250 O   0  0  0  0  0  0  0  0  0  0  0  0
    3.3787   -3.1150    2.3725 H   0  0  0  0  0  0  0  0  0  0  0  0
    2.3932   -1.7113    2.9005 H   0  0  0  0  0  0  0  0  0  0  0  0
    3.6610   -2.3779    3.9514 H   0  0  0  0  0  0  0  0  0  0  0  0
    2.5564   -2.8068    0.0568 H   0  0  0  0  0  0  0  0  0  0  0  0
    0.2063   -2.9945   -2.5140 H   0  0  0  0  0  0  0  0  0  0  0  0
   -1.5332   -2.2894   -1.5409 H   0  0  0  0  0  0  0  0  0  0  0  0
   -2.9291    0.5362    1.5303 H   0  0  0  0  0  0  0  0  0  0  0  0
   -2.2141   -1.0398    1.8703 H   0  0  0  0  0  0  0  0  0  0  0  0
   -4.6726   -1.0800    2.2508 H   0  0  0  0  0  0  0  0  0  0  0  0
   -4.1364   -2.2380    1.0430 H   0  0  0  0  0  0  0  0  0  0  0  0
   -6.1120   -1.2523    0.1659 H   0  0  0  0  0  0  0  0  0  0  0  0
   -4.4974   -1.6214   -1.5336 H   0  0  0  0  0  0  0  0  0  0  0  0
   -5.2496   -0.0794   -1.9162 H   0  0  0  0  0  0  0  0  0  0  0  0
   -2.7796   -0.0594   -2.2057 H   0  0  0  0  0  0  0  0  0  0  0  0
   -3.2755    1.1446   -1.0241 H   0  0  0  0  0  0  0  0  0  0  0  0
   -0.8805    1.1041    0.4251 H   0  0  0  0  0  0  0  0  0  0  0  0
    0.9575    1.8373    0.5733 H   0  0  0  0  0  0  0  0  0  0  0  0
    3.3011    1.9205    1.5491 H   0  0  0  0  0  0  0  0  0  0  0  0
    3.9345    1.6426   -1.4660 H   0  0  0  0  0  0  0  0  0  0  0  0
    4.2171    4.4363   -2.0571 H   0  0  0  0  0  0  0  0  0  0  0  0
    5.6721    3.5588   -2.3343 H   0  0  0  0  0  0  0  0  0  0  0  0
  1  2  1  0
  2  3  2  0
  2  4  1  0
  4  5  1  0
  5  6  1  0
  6  7  1  0
  7  8  2  0
  8  9  1  0
  9 10  2  0
 10 11  1  0
 11 12  1  0
 12 13  1  0
 13 14  1  0
 14 15  1  0
 15 16  1  0
 15 17  1  0
 15 18  1  0
 14 19  1  0
 19 20  1  0
 10 21  1  0
 21 22  2  0
 22 23  1  0
 23 24  1  0
 24 25  2  3
 25 26  1  0
 26 27  1  0
 26 28  2  0
 26 29  2  0
 23  5  2  0
 20 11  1  0
  1 30  1  0
  1 31  1  0
  1 32  1  0
  6 33  1  0
  8 34  1  0
  9 35  1  0
 12 36  1  0
 12 37  1  0
 13 38  1  0
 13 39  1  0
 14 40  1  0
 19 41  1  0
 19 42  1  0
 20 43  1  0
 20 44  1  0
 21 45  1  0
 22 46  1  0
 24 47  1  0
 25 48  1  0
 27 49  1  0
 27 50  1  0
M  END
$$$$
