
     RDKit          3D

 53 54  0  0  0  0  0  0  0  0999 V2000
    6.0855    2.1301   -2.8773 C   0  0  0  0  0  0  0  0  0  0  0  0
    5.2933    2.5138   -1.6355 C   0  0  0  0  0  0  0  0  0  0  0  0
    4.1577    4.0330   -2.0735 Br  0  0  0  0  0  0  0  0  0  0  0  0
    4.4482    1.3645   -1.1141 C   0  0  0  0  0  0  0  0  0  0  0  0
    4.2532    0.3289   -1.7510 O   0  0  0  0  0  0  0  0  0  0  0  0
    4.0343    1.4978    0.6062 S   0  0  0  0  0  0  0  0  0  0  0  0
    2.3178    1.0255    0.5589 C   0  0  0  0  0  0  0  0  0  0  0  0
    1.4050    2.0486    0.4186 N   0  0  0  0  0  0  0  0  0  0  0  0
    1.0449    2.3834   -0.9426 N   0  0  0  0  0  0  0  0  0  0  0  0
   -0.2737    2.2365   -1.1098 C   0  0  0  0  0  0  0  0  0  0  0  0
   -1.2843    1.5293   -0.5814 C   0  0  0  0  0  0  0  0  0  0  0  0
   -1.4484    0.4838    0.2556 C   0  0  0  0  0  0  0  0  0  0  0  0
   -2.8323    0.1433    0.5174 N   0  0  0  0  0  0  0  0  0  0  0  0
   -3.6744    1.1009    1.2508 C   0  0  0  0  0  0  0  0  0  0  0  0
   -4.9831    0.4309    1.6453 C   0  0  0  0  0  0  0  0  0  0  0  0
   -5.7821   -0.0144    0.4054 C   0  0  0  0  0  0  0  0  0  0  0  0
   -6.6387   -1.2241    0.7404 C   0  0  0  0  0  0  0  0  0  0  0  0
   -7.4787   -0.9521    1.7673 F   0  0  0  0  0  0  0  0  0  0  0  0
   -5.8985   -2.2989    1.0900 F   0  0  0  0  0  0  0  0  0  0  0  0
   -7.4050   -1.5828   -0.3155 F   0  0  0  0  0  0  0  0  0  0  0  0
   -4.8693   -0.2924   -0.8026 C   0  0  0  0  0  0  0  0  0  0  0  0
   -3.5028   -0.8177   -0.3741 C   0  0  0  0  0  0  0  0  0  0  0  0
   -0.5875   -0.3945    0.8125 C   0  0  0  0  0  0  0  0  0  0  0  0
    0.6967   -0.7256    0.9909 C   0  0  0  0  0  0  0  0  0  0  0  0
    1.9529   -0.2509    0.8464 C   0  0  0  0  0  0  0  0  0  0  0  0
    2.9860   -1.2721    1.1103 C   0  0  0  0  0  0  0  0  0  0  0  0
    3.4838   -2.0578    0.1411 C   0  0  0  0  0  0  0  0  0  0  0  0
    4.6083   -3.2978    0.5355 S   0  0  0  0  0  0  0  0  0  0  0  0
    3.6419   -4.4923    1.2406 N   0  0  0  0  0  0  0  0  0  0  0  0
    5.1210   -3.8974   -0.6756 O   0  0  0  0  0  0  0  0  0  0  0  0
    5.4914   -2.8673    1.5965 O   0  0  0  0  0  0  0  0  0  0  0  0
    6.7310    1.2692   -2.6746 H   0  0  0  0  0  0  0  0  0  0  0  0
    5.4322    1.8644   -3.7164 H   0  0  0  0  0  0  0  0  0  0  0  0
    6.7265    2.9563   -3.2022 H   0  0  0  0  0  0  0  0  0  0  0  0
    5.9885    2.8545   -0.8603 H   0  0  0  0  0  0  0  0  0  0  0  0
    1.7981    2.8977    0.8197 H   0  0  0  0  0  0  0  0  0  0  0  0
   -0.6553    2.8930   -1.8984 H   0  0  0  0  0  0  0  0  0  0  0  0
   -2.2336    1.8899   -0.9849 H   0  0  0  0  0  0  0  0  0  0  0  0
   -3.1500    1.4318    2.1567 H   0  0  0  0  0  0  0  0  0  0  0  0
   -3.8804    1.9950    0.6431 H   0  0  0  0  0  0  0  0  0  0  0  0
   -5.5917    1.1178    2.2453 H   0  0  0  0  0  0  0  0  0  0  0  0
   -4.7569   -0.4294    2.2899 H   0  0  0  0  0  0  0  0  0  0  0  0
   -6.4633    0.8003    0.1182 H   0  0  0  0  0  0  0  0  0  0  0  0
   -4.7312    0.6448   -1.3587 H   0  0  0  0  0  0  0  0  0  0  0  0
   -5.3382   -0.9930   -1.5012 H   0  0  0  0  0  0  0  0  0  0  0  0
   -2.8979   -1.0134   -1.2696 H   0  0  0  0  0  0  0  0  0  0  0  0
   -3.6081   -1.7766    0.1507 H   0  0  0  0  0  0  0  0  0  0  0  0
   -1.1842   -1.1842    1.2936 H   0  0  0  0  0  0  0  0  0  0  0  0
    0.7186   -1.7404    1.4153 H   0  0  0  0  0  0  0  0  0  0  0  0
    3.3050   -1.3575    2.1476 H   0  0  0  0  0  0  0  0  0  0  0  0
    3.1858   -1.9545   -0.8949 H   0  0  0  0  0  0  0  0  0  0  0  0
    3.3674   -4.2167    2.1804 H   0  0  0  0  0  0  0  0  0  0  0  0
    2.8748   -4.7609    0.6243 H   0  0  0  0  0  0  0  0  0  0  0  0
  1  2  1  0
  2  3  1  0
  2  4  1  0
  4  5  2  0
  4  6  1  0
  6  7  1  0
  7  8  1  0
  8  9  1  0
  9 10  2  0
 10 11  1  0
 11 12  2  0
 12 13  1  0
 13 14  1  0
 14 15  1  0
 15 16  1  0
 16 17  1  0
 17 18  1  0
 17 19  1  0
 17 20  1  0
 16 21  1  0
 21 22  1  0
 12 23  1  0
 23 24  2  0
 24 25  1  0
 25 26  1  0
 26 27  2  3
 27 28  1  0
 28 29  1  0
 28 30  2  0
 28 31  2  0
 25  7  2  0
 22 13  1  0
  1 32  1  0
  1 33  1  0
  1 34  1  0
  2 35  1  0
  8 36  1  0
 10 37  1  0
 11 38  1  0
 14 39  1  0
 14 40  1  0
 15 41  1  0
 15 42  1  0
 16 43  1  0
 21 44  1  0
 21 45  1  0
 22 46  1  0
 22 47  1  0
 23 48  1  0
 24 49  1  0
 26 50  1  0
 27 51  1  0
 29 52  1  0
 29 53  1  0
M  END
$$$$
