
     RDKit          3D

 39 40  0  0  0  0  0  0  0  0999 V2000
    2.9003   -4.4519    2.5920 C   0  0  0  0  0  0  0  0  0  0  0  0
    2.9454   -3.5289    1.3838 C   0  0  0  0  0  0  0  0  0  0  0  0
    1.5526   -3.3230    0.7878 C   0  0  0  0  0  0  0  0  0  0  0  0
    1.5565   -2.4898   -0.4972 C   0  0  0  0  0  0  0  0  0  0  0  0
    2.1328   -1.0742   -0.3734 C   0  0  0  0  0  0  0  0  0  0  0  0
    1.4591   -0.2019    0.6809 C   0  0  0  0  0  0  0  0  0  0  0  0
    0.0735    0.1401    0.3245 N   0  0  0  0  0  0  0  0  0  0  0  0
   -0.0363    1.5069    0.0864 C   0  0  0  0  0  0  0  0  0  0  0  0
   -1.3021    2.0721   -0.4044 C   0  0  0  0  0  0  0  0  0  0  0  0
   -2.5244    1.5288    0.0162 C   0  0  0  0  0  0  0  0  0  0  0  0
   -3.7387    2.0438   -0.4490 C   0  0  0  0  0  0  0  0  0  0  0  0
   -3.7582    3.1101   -1.3581 C   0  0  0  0  0  0  0  0  0  0  0  0
   -5.0671    3.6825   -1.8445 C   0  0  0  0  0  0  0  0  0  0  0  0
   -4.9864    4.2079   -3.0992 F   0  0  0  0  0  0  0  0  0  0  0  0
   -5.5214    4.6876   -1.0468 F   0  0  0  0  0  0  0  0  0  0  0  0
   -6.0690    2.7605   -1.8933 F   0  0  0  0  0  0  0  0  0  0  0  0
   -2.5382    3.6581   -1.7787 C   0  0  0  0  0  0  0  0  0  0  0  0
   -1.3248    3.1414   -1.3104 C   0  0  0  0  0  0  0  0  0  0  0  0
    1.0760    2.2121    0.3396 C   0  0  0  0  0  0  0  0  0  0  0  0
    2.0807    1.1959    0.7185 C   0  0  0  0  0  0  0  0  0  0  0  0
    3.2398    1.4740    0.9873 O   0  0  0  0  0  0  0  0  0  0  0  0
    2.2610   -4.0375    3.3781 H   0  0  0  0  0  0  0  0  0  0  0  0
    3.9051   -4.5841    3.0054 H   0  0  0  0  0  0  0  0  0  0  0  0
    2.5135   -5.4387    2.3183 H   0  0  0  0  0  0  0  0  0  0  0  0
    3.3734   -2.5693    1.6929 H   0  0  0  0  0  0  0  0  0  0  0  0
    3.6143   -3.9575    0.6287 H   0  0  0  0  0  0  0  0  0  0  0  0
    1.1149   -4.3020    0.5546 H   0  0  0  0  0  0  0  0  0  0  0  0
    0.8925   -2.8633    1.5322 H   0  0  0  0  0  0  0  0  0  0  0  0
    2.1289   -3.0267   -1.2642 H   0  0  0  0  0  0  0  0  0  0  0  0
    0.5286   -2.4318   -0.8747 H   0  0  0  0  0  0  0  0  0  0  0  0
    3.2068   -1.1380   -0.1592 H   0  0  0  0  0  0  0  0  0  0  0  0
    2.0603   -0.5907   -1.3571 H   0  0  0  0  0  0  0  0  0  0  0  0
    1.4942   -0.6275    1.6879 H   0  0  0  0  0  0  0  0  0  0  0  0
   -0.3855   -0.4327   -0.3800 H   0  0  0  0  0  0  0  0  0  0  0  0
   -2.5387    0.7043    0.7274 H   0  0  0  0  0  0  0  0  0  0  0  0
   -4.6714    1.6063   -0.0951 H   0  0  0  0  0  0  0  0  0  0  0  0
   -2.5254    4.4917   -2.4801 H   0  0  0  0  0  0  0  0  0  0  0  0
   -0.3981    3.5815   -1.6726 H   0  0  0  0  0  0  0  0  0  0  0  0
    1.2755    3.2636    0.2595 H   0  0  0  0  0  0  0  0  0  0  0  0
  1  2  1  0
  2  3  1  0
  3  4  1  0
  4  5  1  0
  5  6  1  0
  6  7  1  0
  7  8  1  0
  8  9  1  0
  9 10  2  0
 10 11  1  0
 11 12  2  0
 12 13  1  0
 13 14  1  0
 13 15  1  0
 13 16  1  0
 12 17  1  0
 17 18  2  0
  8 19  2  0
 19 20  1  0
 20 21  2  0
 20  6  1  0
 18  9  1  0
  1 22  1  0
  1 23  1  0
  1 24  1  0
  2 25  1  0
  2 26  1  0
  3 27  1  0
  3 28  1  0
  4 29  1  0
  4 30  1  0
  5 31  1  0
  5 32  1  0
  6 33  1  0
  7 34  1  0
 10 35  1  0
 11 36  1  0
 17 37  1  0
 18 38  1  0
 19 39  1  0
M  END
$$$$
