
     RDKit          3D

 45 47  0  0  0  0  0  0  0  0999 V2000
   -2.9302   -2.2453   -2.2652 C   0  0  0  0  0  0  0  0  0  0  0  0
   -3.6835   -1.1381   -2.3007 C   0  0  0  0  0  0  0  0  0  0  0  0
   -3.5821   -0.0092   -1.3417 C   0  0  0  0  0  0  0  0  0  0  0  0
   -3.8270    1.1302   -1.7170 O   0  0  0  0  0  0  0  0  0  0  0  0
   -3.2641   -0.3636   -0.0580 N   0  0  0  0  0  0  0  0  0  0  0  0
   -2.9898    0.6293    0.9750 C   0  0  1  0  0  0  0  0  0  0  0  0
   -3.4559    0.1094    2.3355 C   0  0  0  0  0  0  0  0  0  0  0  0
   -1.5089    0.9905    1.0235 C   0  0  0  0  0  0  0  0  0  0  0  0
   -0.5410   -0.0360    0.9255 C   0  0  0  0  0  0  0  0  0  0  0  0
    0.8325    0.2357    0.9765 C   0  0  0  0  0  0  0  0  0  0  0  0
    1.8037   -0.8388    0.8631 C   0  0  0  0  0  0  0  0  0  0  0  0
    1.7686   -1.9684    1.6565 C   0  0  0  0  0  0  0  0  0  0  0  0
    2.8334   -2.7599    1.3170 N   0  0  0  0  0  0  0  0  0  0  0  0
    3.5635   -2.1727    0.3093 C   0  0  0  0  0  0  0  0  0  0  0  0
    4.7195   -2.6194   -0.3441 C   0  0  0  0  0  0  0  0  0  0  0  0
    5.2549   -1.8061   -1.3480 C   0  0  0  0  0  0  0  0  0  0  0  0
    4.6461   -0.6000   -1.6752 C   0  0  0  0  0  0  0  0  0  0  0  0
    5.1545    0.2041   -2.6551 O   0  0  0  0  0  0  0  0  0  0  0  0
    3.4951   -0.1622   -1.0201 C   0  0  0  0  0  0  0  0  0  0  0  0
    2.9396   -0.9613    0.0011 C   0  0  0  0  0  0  0  0  0  0  0  0
    1.2576    1.5526    1.1421 C   0  0  0  0  0  0  0  0  0  0  0  0
    0.3209    2.5802    1.2634 C   0  0  0  0  0  0  0  0  0  0  0  0
   -1.0566    2.3139    1.2057 C   0  0  0  0  0  0  0  0  0  0  0  0
   -2.1521    3.7154    1.4185 S   0  0  0  0  0  0  0  0  0  0  0  0
   -2.2735    4.2264   -0.3169 C   0  0  0  0  0  0  0  0  0  0  0  0
   -3.0430   -3.0034   -3.0345 H   0  0  0  0  0  0  0  0  0  0  0  0
   -2.1642   -2.4131   -1.5166 H   0  0  0  0  0  0  0  0  0  0  0  0
   -4.3847   -0.9705   -3.1123 H   0  0  0  0  0  0  0  0  0  0  0  0
   -3.0938   -1.3335    0.1573 H   0  0  0  0  0  0  0  0  0  0  0  0
   -3.5907    1.5072    0.7223 H   0  0  0  0  0  0  0  0  0  0  0  0
   -2.9277   -0.8075    2.6219 H   0  0  0  0  0  0  0  0  0  0  0  0
   -3.2888    0.8521    3.1231 H   0  0  0  0  0  0  0  0  0  0  0  0
   -4.5261   -0.1247    2.3118 H   0  0  0  0  0  0  0  0  0  0  0  0
   -0.8609   -1.0673    0.7980 H   0  0  0  0  0  0  0  0  0  0  0  0
    1.0909   -2.2686    2.4446 H   0  0  0  0  0  0  0  0  0  0  0  0
    3.0603   -3.6461    1.7463 H   0  0  0  0  0  0  0  0  0  0  0  0
    5.1884   -3.5631   -0.0849 H   0  0  0  0  0  0  0  0  0  0  0  0
    6.1512   -2.1361   -1.8649 H   0  0  0  0  0  0  0  0  0  0  0  0
    5.9438   -0.2215   -3.0269 H   0  0  0  0  0  0  0  0  0  0  0  0
    3.0347    0.7800   -1.3006 H   0  0  0  0  0  0  0  0  0  0  0  0
    2.3175    1.7895    1.1970 H   0  0  0  0  0  0  0  0  0  0  0  0
    0.6788    3.5972    1.4111 H   0  0  0  0  0  0  0  0  0  0  0  0
   -2.6770    3.4192   -0.9316 H   0  0  0  0  0  0  0  0  0  0  0  0
   -1.2911    4.5158   -0.7002 H   0  0  0  0  0  0  0  0  0  0  0  0
   -2.9427    5.0877   -0.3906 H   0  0  0  0  0  0  0  0  0  0  0  0
  1  2  2  0
  2  3  1  0
  3  4  2  0
  3  5  1  0
  5  6  1  0
  6  7  1  0
  6  8  1  0
  8  9  2  0
  9 10  1  0
 10 11  1  0
 11 12  2  0
 12 13  1  0
 13 14  1  0
 14 15  2  0
 15 16  1  0
 16 17  2  0
 17 18  1  0
 17 19  1  0
 19 20  2  0
 10 21  2  0
 21 22  1  0
 22 23  2  0
 23 24  1  0
 24 25  1  0
 23  8  1  0
 20 11  1  0
 20 14  1  0
  1 26  1  0
  1 27  1  0
  2 28  1  0
  5 29  1  0
  6 30  1  6
  7 31  1  0
  7 32  1  0
  7 33  1  0
  9 34  1  0
 12 35  1  0
 13 36  1  0
 15 37  1  0
 16 38  1  0
 18 39  1  0
 19 40  1  0
 21 41  1  0
 22 42  1  0
 25 43  1  0
 25 44  1  0
 25 45  1  0
M  END
$$$$
