
     RDKit          3D

 37 38  0  0  0  0  0  0  0  0999 V2000
   -4.5163    1.4956    0.3849 C   0  0  0  0  0  0  0  0  0  0  0  0
   -3.2486    1.3855    1.0192 O   0  0  0  0  0  0  0  0  0  0  0  0
   -2.8000    0.0375    1.1519 C   0  0  0  0  0  0  0  0  0  0  0  0
   -2.0770   -0.4357   -0.1156 C   0  0  0  0  0  0  0  0  0  0  0  0
   -1.5673   -1.7999    0.0254 N   0  0  0  0  0  0  0  0  0  0  0  0
   -2.4018   -2.8414   -0.3412 C   0  0  0  0  0  0  0  0  0  0  0  0
   -2.0999   -4.0064   -0.5605 O   0  0  0  0  0  0  0  0  0  0  0  0
   -0.3575   -2.0851    0.6514 C   0  0  0  0  0  0  0  0  0  0  0  0
   -0.1252   -3.0917    1.3138 O   0  0  0  0  0  0  0  0  0  0  0  0
    0.6960   -1.0429    0.6185 C   0  0  0  0  0  0  0  0  0  0  0  0
    1.0174   -0.4379    1.8353 C   0  0  0  0  0  0  0  0  0  0  0  0
    1.9583    0.5855    1.8704 C   0  0  0  0  0  0  0  0  0  0  0  0
    2.5894    1.0182    0.6969 C   0  0  0  0  0  0  0  0  0  0  0  0
    3.5183    2.0700    0.7542 C   0  0  0  0  0  0  0  0  0  0  0  0
    4.1604    2.5247   -0.3954 C   0  0  0  0  0  0  0  0  0  0  0  0
    3.8808    1.9324   -1.6186 C   0  0  0  0  0  0  0  0  0  0  0  0
    2.9612    0.8828   -1.6916 C   0  0  0  0  0  0  0  0  0  0  0  0
    2.2939    0.3934   -0.5444 C   0  0  0  0  0  0  0  0  0  0  0  0
    1.3539   -0.6786   -0.5762 C   0  0  0  0  0  0  0  0  0  0  0  0
    1.0568   -1.4034   -1.8671 C   0  0  0  0  0  0  0  0  0  0  0  0
   -4.4801    1.0999   -0.6336 H   0  0  0  0  0  0  0  0  0  0  0  0
   -5.2812    0.9717    0.9661 H   0  0  0  0  0  0  0  0  0  0  0  0
   -4.7833    2.5548    0.3354 H   0  0  0  0  0  0  0  0  0  0  0  0
   -3.6333   -0.6257    1.4138 H   0  0  0  0  0  0  0  0  0  0  0  0
   -2.1037    0.0169    1.9972 H   0  0  0  0  0  0  0  0  0  0  0  0
   -2.7645   -0.4041   -0.9690 H   0  0  0  0  0  0  0  0  0  0  0  0
   -1.2732    0.2657   -0.3563 H   0  0  0  0  0  0  0  0  0  0  0  0
   -3.4369   -2.5011   -0.5150 H   0  0  0  0  0  0  0  0  0  0  0  0
    0.5347   -0.7607    2.7553 H   0  0  0  0  0  0  0  0  0  0  0  0
    2.1919    1.0490    2.8270 H   0  0  0  0  0  0  0  0  0  0  0  0
    3.7513    2.5482    1.7036 H   0  0  0  0  0  0  0  0  0  0  0  0
    4.8768    3.3396   -0.3333 H   0  0  0  0  0  0  0  0  0  0  0  0
    4.3775    2.2826   -2.5198 H   0  0  0  0  0  0  0  0  0  0  0  0
    2.7721    0.4532   -2.6724 H   0  0  0  0  0  0  0  0  0  0  0  0
    0.4121   -0.7882   -2.5024 H   0  0  0  0  0  0  0  0  0  0  0  0
    0.5649   -2.3666   -1.7050 H   0  0  0  0  0  0  0  0  0  0  0  0
    1.9825   -1.6378   -2.4028 H   0  0  0  0  0  0  0  0  0  0  0  0
  1  2  1  0
  2  3  1  0
  3  4  1  0
  4  5  1  0
  5  6  1  0
  6  7  2  0
  5  8  1  0
  8  9  2  0
  8 10  1  0
 10 11  2  0
 11 12  1  0
 12 13  2  0
 13 14  1  0
 14 15  2  0
 15 16  1  0
 16 17  2  0
 17 18  1  0
 18 19  2  0
 19 20  1  0
 19 10  1  0
 18 13  1  0
  1 21  1  0
  1 22  1  0
  1 23  1  0
  3 24  1  0
  3 25  1  0
  4 26  1  0
  4 27  1  0
  6 28  1  0
 11 29  1  0
 12 30  1  0
 14 31  1  0
 15 32  1  0
 16 33  1  0
 17 34  1  0
 20 35  1  0
 20 36  1  0
 20 37  1  0
M  END
$$$$
