
     RDKit          3D

 37 40  0  0  0  0  0  0  0  0999 V2000
    6.5004    1.8049   -0.3778 C   0  0  0  0  0  0  0  0  0  0  0  0
    5.2217    1.8171    0.2947 N   0  0  0  0  0  0  0  0  0  0  0  0
    4.5415    0.6076    0.2424 C   0  0  0  0  0  0  0  0  0  0  0  0
    5.2070   -0.5531    0.2958 N   0  0  0  0  0  0  0  0  0  0  0  0
    4.4739   -1.6768    0.2494 C   0  0  0  0  0  0  0  0  0  0  0  0
    3.1057   -1.6841    0.1471 C   0  0  0  0  0  0  0  0  0  0  0  0
    2.4959   -0.4457    0.0895 C   0  0  0  0  0  0  0  0  0  0  0  0
    1.0313   -0.2937   -0.0224 C   0  0  0  0  0  0  0  0  0  0  0  0
    0.1427   -1.0709    0.7043 C   0  0  0  0  0  0  0  0  0  0  0  0
   -1.2361   -0.8682    0.5404 C   0  0  0  0  0  0  0  0  0  0  0  0
   -1.7385    0.0949   -0.3388 C   0  0  0  0  0  0  0  0  0  0  0  0
   -0.7601    0.8217   -1.0126 C   0  0  0  0  0  0  0  0  0  0  0  0
    0.5800    0.6495   -0.8827 N   0  0  0  0  0  0  0  0  0  0  0  0
   -3.1896    0.2982   -0.5171 C   0  0  0  0  0  0  0  0  0  0  0  0
   -3.7293    1.1936   -1.4622 C   0  0  0  0  0  0  0  0  0  0  0  0
   -5.1095    1.3688   -1.6074 C   0  0  0  0  0  0  0  0  0  0  0  0
   -5.9893    0.6514   -0.8103 C   0  0  0  0  0  0  0  0  0  0  0  0
   -5.4872   -0.2429    0.1277 C   0  0  0  0  0  0  0  0  0  0  0  0
   -4.0991   -0.4287    0.2753 C   0  0  0  0  0  0  0  0  0  0  0  0
   -3.6321   -1.4099    1.3184 C   0  0  0  0  0  0  0  0  0  0  0  0
   -2.1574   -1.7097    1.3365 C   0  0  0  0  0  0  0  0  0  0  0  0
   -1.7011   -2.6234    2.0238 O   0  0  0  0  0  0  0  0  0  0  0  0
    3.2134    0.7014    0.1373 N   0  0  0  0  0  0  0  0  0  0  0  0
    7.2169    1.1473    0.1264 H   0  0  0  0  0  0  0  0  0  0  0  0
    6.4034    1.5012   -1.4263 H   0  0  0  0  0  0  0  0  0  0  0  0
    6.9222    2.8150   -0.3634 H   0  0  0  0  0  0  0  0  0  0  0  0
    4.5594    2.5069   -0.0460 H   0  0  0  0  0  0  0  0  0  0  0  0
    5.0406   -2.6018    0.2966 H   0  0  0  0  0  0  0  0  0  0  0  0
    2.5543   -2.6132    0.0997 H   0  0  0  0  0  0  0  0  0  0  0  0
    0.5052   -1.8141    1.4092 H   0  0  0  0  0  0  0  0  0  0  0  0
   -1.0070    1.6112   -1.7160 H   0  0  0  0  0  0  0  0  0  0  0  0
   -3.0928    1.7810   -2.1185 H   0  0  0  0  0  0  0  0  0  0  0  0
   -5.4927    2.0689   -2.3461 H   0  0  0  0  0  0  0  0  0  0  0  0
   -7.0622    0.7868   -0.9188 H   0  0  0  0  0  0  0  0  0  0  0  0
   -6.1839   -0.8023    0.7501 H   0  0  0  0  0  0  0  0  0  0  0  0
   -3.8999   -1.0257    2.3097 H   0  0  0  0  0  0  0  0  0  0  0  0
   -4.1477   -2.3636    1.1516 H   0  0  0  0  0  0  0  0  0  0  0  0
  1  2  1  0
  2  3  1  0
  3  4  2  0
  4  5  1  0
  5  6  2  0
  6  7  1  0
  7  8  1  0
  8  9  2  0
  9 10  1  0
 10 11  2  0
 11 12  1  0
 12 13  2  0
 11 14  1  0
 14 15  2  0
 15 16  1  0
 16 17  2  0
 17 18  1  0
 18 19  2  0
 19 20  1  0
 20 21  1  0
 21 22  2  0
  7 23  2  0
 23  3  1  0
 13  8  1  0
 19 14  1  0
 21 10  1  0
  1 24  1  0
  1 25  1  0
  1 26  1  0
  2 27  1  0
  5 28  1  0
  6 29  1  0
  9 30  1  0
 12 31  1  0
 15 32  1  0
 16 33  1  0
 17 34  1  0
 18 35  1  0
 20 36  1  0
 20 37  1  0
M  END
$$$$
