
     RDKit          3D

 55 57  0  0  0  0  0  0  0  0999 V2000
    8.0717   -0.2456    1.1804 C   0  0  0  0  0  0  0  0  0  0  0  0
    6.6995   -0.6822    1.6615 C   0  0  0  0  0  0  0  0  0  0  0  0
    5.7136   -0.8521    0.5217 C   0  0  0  0  0  0  0  0  0  0  0  0
    5.9941   -0.6542   -0.6543 O   0  0  0  0  0  0  0  0  0  0  0  0
    4.4663   -1.2489    0.9559 N   0  0  0  0  0  0  0  0  0  0  0  0
    3.3584   -1.4737    0.0484 C   0  0  0  0  0  0  0  0  0  0  0  0
    2.3527   -0.3211    0.0635 C   0  0  0  0  0  0  0  0  0  0  0  0
    2.8787    0.9324   -0.6371 C   0  0  0  0  0  0  0  0  0  0  0  0
    1.9415    2.1495   -0.5810 C   0  0  0  0  0  0  0  0  0  0  0  0
    0.5544    1.9981   -1.2288 C   0  0  0  0  0  0  0  0  0  0  0  0
    0.6832    1.2649   -2.4481 O   0  0  0  0  0  0  0  0  0  0  0  0
   -0.5798    1.1140   -3.1023 C   0  0  0  0  0  0  0  0  0  0  0  0
   -1.6584    0.4634   -2.3537 N   0  0  0  0  0  0  0  0  0  0  0  0
   -1.5433    0.5983   -1.0845 C   0  0  0  0  0  0  0  0  0  0  0  0
   -2.4442    0.0411   -0.0461 C   0  0  0  0  0  0  0  0  0  0  0  0
   -3.6199   -0.7957   -0.2627 C   0  0  0  0  0  0  0  0  0  0  0  0
   -3.3889   -2.0997   -0.7368 C   0  0  0  0  0  0  0  0  0  0  0  0
   -4.4439   -2.9847   -0.9413 C   0  0  0  0  0  0  0  0  0  0  0  0
   -5.7434   -2.5744   -0.6743 C   0  0  0  0  0  0  0  0  0  0  0  0
   -5.9886   -1.2801   -0.2165 C   0  0  0  0  0  0  0  0  0  0  0  0
   -7.3077   -0.9884    0.0017 O   0  0  0  0  0  0  0  0  0  0  0  0
   -4.9433   -0.3604   -0.0057 C   0  0  0  0  0  0  0  0  0  0  0  0
   -5.2259    1.0498    0.4685 C   0  0  0  0  0  0  0  0  0  0  0  0
   -5.4945    1.1177    1.9657 C   0  0  0  0  0  0  0  0  0  0  0  0
   -1.8967    0.4097    1.1198 C   0  0  0  0  0  0  0  0  0  0  0  0
   -0.7161    1.1973    0.9138 C   0  0  0  0  0  0  0  0  0  0  0  0
   -0.4759    1.3446   -0.3911 C   0  0  0  0  0  0  0  0  0  0  0  0
    8.7546   -0.1325    2.0279 H   0  0  0  0  0  0  0  0  0  0  0  0
    8.4995   -0.9820    0.4919 H   0  0  0  0  0  0  0  0  0  0  0  0
    8.0172    0.7133    0.6543 H   0  0  0  0  0  0  0  0  0  0  0  0
    6.3011    0.0654    2.3566 H   0  0  0  0  0  0  0  0  0  0  0  0
    6.7850   -1.6368    2.1926 H   0  0  0  0  0  0  0  0  0  0  0  0
    4.3108   -1.3871    1.9456 H   0  0  0  0  0  0  0  0  0  0  0  0
    2.8633   -2.3881    0.3928 H   0  0  0  0  0  0  0  0  0  0  0  0
    3.7279   -1.6556   -0.9664 H   0  0  0  0  0  0  0  0  0  0  0  0
    1.4487   -0.6691   -0.4470 H   0  0  0  0  0  0  0  0  0  0  0  0
    2.0805   -0.0821    1.0983 H   0  0  0  0  0  0  0  0  0  0  0  0
    3.1084    0.6952   -1.6832 H   0  0  0  0  0  0  0  0  0  0  0  0
    3.8275    1.2345   -0.1780 H   0  0  0  0  0  0  0  0  0  0  0  0
    1.8486    2.5008    0.4538 H   0  0  0  0  0  0  0  0  0  0  0  0
    2.4618    2.9531   -1.1206 H   0  0  0  0  0  0  0  0  0  0  0  0
    0.1949    3.0061   -1.4771 H   0  0  0  0  0  0  0  0  0  0  0  0
   -0.3873    0.5129   -3.9970 H   0  0  0  0  0  0  0  0  0  0  0  0
   -0.9183    2.0959   -3.4560 H   0  0  0  0  0  0  0  0  0  0  0  0
   -2.3751   -2.4320   -0.9550 H   0  0  0  0  0  0  0  0  0  0  0  0
   -4.2524   -3.9883   -1.3103 H   0  0  0  0  0  0  0  0  0  0  0  0
   -6.5730   -3.2588   -0.8314 H   0  0  0  0  0  0  0  0  0  0  0  0
   -7.4040   -0.0614    0.2622 H   0  0  0  0  0  0  0  0  0  0  0  0
   -4.3995    1.7240    0.2187 H   0  0  0  0  0  0  0  0  0  0  0  0
   -6.0805    1.4582   -0.0846 H   0  0  0  0  0  0  0  0  0  0  0  0
   -6.3707    0.5249    2.2470 H   0  0  0  0  0  0  0  0  0  0  0  0
   -4.6430    0.7438    2.5425 H   0  0  0  0  0  0  0  0  0  0  0  0
   -5.6793    2.1535    2.2680 H   0  0  0  0  0  0  0  0  0  0  0  0
   -2.2698    0.1441    2.0982 H   0  0  0  0  0  0  0  0  0  0  0  0
   -0.1204    1.5999    1.7193 H   0  0  0  0  0  0  0  0  0  0  0  0
  1  2  1  0
  2  3  1  0
  3  4  2  0
  3  5  1  0
  5  6  1  0
  6  7  1  0
  7  8  1  0
  8  9  1  0
  9 10  1  0
 10 11  1  0
 11 12  1  0
 12 13  1  0
 13 14  2  0
 14 15  1  0
 15 16  1  0
 16 17  2  0
 17 18  1  0
 18 19  2  0
 19 20  1  0
 20 21  1  0
 20 22  2  0
 22 23  1  0
 23 24  1  0
 15 25  2  0
 25 26  1  0
 26 27  2  0
 27 10  1  0
 27 14  1  0
 22 16  1  0
  1 28  1  0
  1 29  1  0
  1 30  1  0
  2 31  1  0
  2 32  1  0
  5 33  1  0
  6 34  1  0
  6 35  1  0
  7 36  1  0
  7 37  1  0
  8 38  1  0
  8 39  1  0
  9 40  1  0
  9 41  1  0
 10 42  1  0
 12 43  1  0
 12 44  1  0
 17 45  1  0
 18 46  1  0
 19 47  1  0
 21 48  1  0
 23 49  1  0
 23 50  1  0
 24 51  1  0
 24 52  1  0
 24 53  1  0
 25 54  1  0
 26 55  1  0
M  END
$$$$
