
     RDKit          3D

 29 31  0  0  0  0  0  0  0  0999 V2000
    6.5536   -0.0697   -0.2852 N   0  0  0  0  0  0  0  0  0  0  0  0
    5.1814   -0.1293   -0.2775 C   0  0  0  0  0  0  0  0  0  0  0  0
    4.3445   -1.1013   -0.6999 C   0  0  0  0  0  0  0  0  0  0  0  0
    3.0292   -0.6703   -0.4616 C   0  0  0  0  0  0  0  0  0  0  0  0
    1.5214   -1.3350   -0.7338 S   0  0  0  0  0  0  0  0  0  0  0  0
    0.7523    0.0440   -0.0562 C   0  0  0  0  0  0  0  0  0  0  0  0
   -0.6243    0.1591    0.0241 N   0  0  0  0  0  0  0  0  0  0  0  0
   -1.5542   -0.8144   -0.2935 C   0  0  0  0  0  0  0  0  0  0  0  0
   -1.3470   -1.9744   -0.6249 O   0  0  0  0  0  0  0  0  0  0  0  0
   -2.9740   -0.3769   -0.1600 C   0  0  0  0  0  0  0  0  0  0  0  0
   -3.3836    0.9176   -0.5101 C   0  0  0  0  0  0  0  0  0  0  0  0
   -4.7260    1.2849   -0.3735 C   0  0  0  0  0  0  0  0  0  0  0  0
   -5.6559    0.3598    0.1020 C   0  0  0  0  0  0  0  0  0  0  0  0
   -7.3055    0.8178    0.2683 Cl  0  0  0  0  0  0  0  0  0  0  0  0
   -5.2592   -0.9341    0.4352 C   0  0  0  0  0  0  0  0  0  0  0  0
   -3.9190   -1.3048    0.2988 C   0  0  0  0  0  0  0  0  0  0  0  0
    1.6642    1.0032    0.3613 C   0  0  0  0  0  0  0  0  0  0  0  0
    2.9794    0.5634    0.1178 C   0  0  0  0  0  0  0  0  0  0  0  0
    4.3318    1.0149    0.2962 C   0  0  0  0  0  0  0  0  0  0  0  0
    4.7320    2.0452    0.8084 O   0  0  0  0  0  0  0  0  0  0  0  0
    7.0069   -0.9775   -0.2407 H   0  0  0  0  0  0  0  0  0  0  0  0
    6.9118    0.5964    0.4009 H   0  0  0  0  0  0  0  0  0  0  0  0
    4.6223   -2.0409   -1.1528 H   0  0  0  0  0  0  0  0  0  0  0  0
   -0.9623    1.0227    0.4280 H   0  0  0  0  0  0  0  0  0  0  0  0
   -2.6816    1.6391   -0.9199 H   0  0  0  0  0  0  0  0  0  0  0  0
   -5.0432    2.2874   -0.6503 H   0  0  0  0  0  0  0  0  0  0  0  0
   -5.9848   -1.6594    0.7949 H   0  0  0  0  0  0  0  0  0  0  0  0
   -3.6116   -2.3188    0.5500 H   0  0  0  0  0  0  0  0  0  0  0  0
    1.4014    1.9513    0.8124 H   0  0  0  0  0  0  0  0  0  0  0  0
  1  2  1  0
  2  3  2  0
  3  4  1  0
  4  5  1  0
  5  6  1  0
  6  7  1  0
  7  8  1  0
  8  9  2  0
  8 10  1  0
 10 11  2  0
 11 12  1  0
 12 13  2  0
 13 14  1  0
 13 15  1  0
 15 16  2  0
  6 17  2  0
 17 18  1  0
 18 19  1  0
 19 20  2  0
 19  2  1  0
 18  4  2  0
 16 10  1  0
  1 21  1  0
  1 22  1  0
  3 23  1  0
  7 24  1  0
 11 25  1  0
 12 26  1  0
 15 27  1  0
 16 28  1  0
 17 29  1  0
M  END
$$$$
