
     RDKit          3D

 57 60  0  0  0  0  0  0  0  0999 V2000
   -6.6693    2.3497    1.3126 C   0  0  0  0  0  0  0  0  0  0  0  0
   -6.4571    1.5966    0.1192 O   0  0  0  0  0  0  0  0  0  0  0  0
   -5.2340    0.9504    0.1549 C   0  0  0  0  0  0  0  0  0  0  0  0
   -4.1550    1.4390   -0.4683 C   0  0  0  0  0  0  0  0  0  0  0  0
   -4.0250    2.6901   -1.2031 C   0  0  0  0  0  0  0  0  0  0  0  0
   -2.7189    2.7887   -1.5062 C   0  0  0  0  0  0  0  0  0  0  0  0
   -2.0181    1.7128   -1.0175 N   0  0  0  0  0  0  0  0  0  0  0  0
   -2.8413    0.7830   -0.4320 C   0  0  0  0  0  0  0  0  0  0  0  0
   -2.6579   -0.4660    0.0352 C   0  0  0  0  0  0  0  0  0  0  0  0
   -1.4412   -1.1642    0.0420 N   0  0  0  0  0  0  0  0  0  0  0  0
   -1.3269   -2.5171    0.5536 C   0  0  0  0  0  0  0  0  0  0  0  0
   -0.0233   -3.0308   -0.0166 C   0  0  0  0  0  0  0  0  0  0  0  0
    0.8476   -1.7838   -0.0202 C   0  0  0  0  0  0  0  0  0  0  0  0
    2.0136   -1.8828   -1.0036 C   0  0  0  0  0  0  0  0  0  0  0  0
    3.2227   -1.0981   -0.5448 C   0  0  0  0  0  0  0  0  0  0  0  0
    4.1887   -1.7031    0.2722 C   0  0  0  0  0  0  0  0  0  0  0  0
    5.2962   -0.9769    0.7154 C   0  0  0  0  0  0  0  0  0  0  0  0
    5.4530    0.3606    0.3384 C   0  0  0  0  0  0  0  0  0  0  0  0
    6.6299    1.1088    0.8455 C   0  0  0  0  0  0  0  0  0  0  0  0
    7.0581    0.8858    1.9791 O   0  0  0  0  0  0  0  0  0  0  0  0
    7.2197    2.0702    0.0144 N   0  0  0  0  0  0  0  0  0  0  0  0
    7.5766    1.7488   -1.3562 C   0  0  0  0  0  0  0  0  0  0  0  0
    8.3822    2.6203    0.6482 O   0  0  0  0  0  0  0  0  0  0  0  0
    4.4798    0.9796   -0.4522 C   0  0  0  0  0  0  0  0  0  0  0  0
    3.3749    0.2496   -0.8968 C   0  0  0  0  0  0  0  0  0  0  0  0
   -0.1705   -0.7100   -0.3832 C   0  0  0  0  0  0  0  0  0  0  0  0
    0.1276    0.3467   -0.9213 O   0  0  0  0  0  0  0  0  0  0  0  0
   -3.8945   -1.2050    0.5517 C   0  0  0  0  0  0  0  0  0  0  0  0
   -5.1446   -0.3522    0.9174 C   0  0  0  0  0  0  0  0  0  0  0  0
   -6.4046   -1.2130    0.7681 C   0  0  0  0  0  0  0  0  0  0  0  0
   -7.6163    2.8871    1.2069 H   0  0  0  0  0  0  0  0  0  0  0  0
   -6.7473    1.6925    2.1847 H   0  0  0  0  0  0  0  0  0  0  0  0
   -5.8732    3.0871    1.4623 H   0  0  0  0  0  0  0  0  0  0  0  0
   -4.8184    3.3757   -1.4423 H   0  0  0  0  0  0  0  0  0  0  0  0
   -2.2100    3.5680   -2.0541 H   0  0  0  0  0  0  0  0  0  0  0  0
   -1.0530    1.4864   -1.2517 H   0  0  0  0  0  0  0  0  0  0  0  0
   -1.2942   -2.4737    1.6482 H   0  0  0  0  0  0  0  0  0  0  0  0
   -2.1574   -3.1502    0.2279 H   0  0  0  0  0  0  0  0  0  0  0  0
    0.4008   -3.8461    0.5768 H   0  0  0  0  0  0  0  0  0  0  0  0
   -0.1812   -3.3976   -1.0391 H   0  0  0  0  0  0  0  0  0  0  0  0
    1.1949   -1.5760    1.0007 H   0  0  0  0  0  0  0  0  0  0  0  0
    2.3210   -2.9306   -1.1198 H   0  0  0  0  0  0  0  0  0  0  0  0
    1.7219   -1.5477   -2.0072 H   0  0  0  0  0  0  0  0  0  0  0  0
    4.0832   -2.7428    0.5743 H   0  0  0  0  0  0  0  0  0  0  0  0
    6.0337   -1.4543    1.3574 H   0  0  0  0  0  0  0  0  0  0  0  0
    8.3064    0.9328   -1.3551 H   0  0  0  0  0  0  0  0  0  0  0  0
    8.0122    2.6334   -1.8295 H   0  0  0  0  0  0  0  0  0  0  0  0
    6.7007    1.4330   -1.9254 H   0  0  0  0  0  0  0  0  0  0  0  0
    8.3529    2.1995    1.5364 H   0  0  0  0  0  0  0  0  0  0  0  0
    4.5594    2.0322   -0.7129 H   0  0  0  0  0  0  0  0  0  0  0  0
    2.6228    0.7463   -1.5083 H   0  0  0  0  0  0  0  0  0  0  0  0
   -4.1699   -1.9435   -0.2144 H   0  0  0  0  0  0  0  0  0  0  0  0
   -3.6381   -1.7711    1.4565 H   0  0  0  0  0  0  0  0  0  0  0  0
   -5.0544   -0.0879    1.9806 H   0  0  0  0  0  0  0  0  0  0  0  0
   -6.3027   -2.1483    1.3293 H   0  0  0  0  0  0  0  0  0  0  0  0
   -7.2899   -0.6963    1.1535 H   0  0  0  0  0  0  0  0  0  0  0  0
   -6.5922   -1.4654   -0.2815 H   0  0  0  0  0  0  0  0  0  0  0  0
  1  2  1  0
  2  3  1  0
  3  4  2  0
  4  5  1  0
  5  6  2  0
  6  7  1  0
  7  8  1  0
  8  9  2  0
  9 10  1  0
 10 11  1  0
 11 12  1  0
 12 13  1  0
 13 14  1  0
 14 15  1  0
 15 16  2  0
 16 17  1  0
 17 18  2  0
 18 19  1  0
 19 20  2  0
 19 21  1  0
 21 22  1  0
 21 23  1  0
 18 24  1  0
 24 25  2  0
 13 26  1  0
 26 27  2  0
  9 28  1  0
 28 29  1  0
 29 30  1  0
 29  3  1  0
  8  4  1  0
 26 10  1  0
 25 15  1  0
  1 31  1  0
  1 32  1  0
  1 33  1  0
  5 34  1  0
  6 35  1  0
  7 36  1  0
 11 37  1  0
 11 38  1  0
 12 39  1  0
 12 40  1  0
 13 41  1  0
 14 42  1  0
 14 43  1  0
 16 44  1  0
 17 45  1  0
 22 46  1  0
 22 47  1  0
 22 48  1  0
 23 49  1  0
 24 50  1  0
 25 51  1  0
 28 52  1  0
 28 53  1  0
 29 54  1  0
 30 55  1  0
 30 56  1  0
 30 57  1  0
M  END
$$$$
