
     RDKit          3D

 52 55  0  0  0  0  0  0  0  0999 V2000
    9.4808   -2.1095   -0.2546 C   0  0  0  0  0  0  0  0  0  0  0  0
    8.9679   -1.2201    0.7305 O   0  0  0  0  0  0  0  0  0  0  0  0
    8.8898    0.1215    0.2272 C   0  0  0  0  0  0  0  0  0  0  0  0
    8.3055    1.0182    1.3205 C   0  0  0  0  0  0  0  0  0  0  0  0
    6.9523    0.6214    1.6803 N   0  0  0  0  0  0  0  0  0  0  0  0
    5.8984    0.9577    0.8532 C   0  0  0  0  0  0  0  0  0  0  0  0
    6.0352    1.6589   -0.1410 O   0  0  0  0  0  0  0  0  0  0  0  0
    4.7221    0.4146    1.3203 N   0  0  0  0  0  0  0  0  0  0  0  0
    3.4906    0.4635    0.7360 C   0  0  0  0  0  0  0  0  0  0  0  0
    2.3639   -0.0075    1.2964 C   0  0  0  0  0  0  0  0  0  0  0  0
    1.2859    0.2217    0.3451 C   0  0  0  0  0  0  0  0  0  0  0  0
    0.0110   -0.1191    0.5745 C   0  0  0  0  0  0  0  0  0  0  0  0
   -1.0987    0.0907   -0.3712 C   0  0  0  0  0  0  0  0  0  0  0  0
   -1.0824    0.4444   -1.6365 N   0  0  0  0  0  0  0  0  0  0  0  0
   -2.4195    0.4660   -2.0369 C   0  0  0  0  0  0  0  0  0  0  0  0
   -3.2665    0.1322   -1.0652 C   0  0  0  0  0  0  0  0  0  0  0  0
   -2.4752   -0.1345    0.0839 C   0  0  0  0  0  0  0  0  0  0  0  0
   -3.3303   -0.4624    1.0472 C   0  0  0  0  0  0  0  0  0  0  0  0
   -4.6612   -0.4416    0.6353 N   0  0  0  0  0  0  0  0  0  0  0  0
   -4.6654   -0.0859   -0.6401 C   0  0  0  0  0  0  0  0  0  0  0  0
   -5.7306    0.0724   -1.4883 N   0  0  0  0  0  0  0  0  0  0  0  0
   -7.1050   -0.0907   -1.2354 C   0  0  0  0  0  0  0  0  0  0  0  0
   -8.0069    0.1054   -2.2870 C   0  0  0  0  0  0  0  0  0  0  0  0
   -9.3644   -0.0541   -2.0554 C   0  0  0  0  0  0  0  0  0  0  0  0
   -9.8862   -0.3904   -0.8611 N   0  0  0  0  0  0  0  0  0  0  0  0
   -9.0164   -0.5799    0.1560 C   0  0  0  0  0  0  0  0  0  0  0  0
   -9.5886   -0.9565    1.4900 C   0  0  0  0  0  0  0  0  0  0  0  0
   -7.6370   -0.4409    0.0058 C   0  0  0  0  0  0  0  0  0  0  0  0
    1.8692    0.8613   -0.8187 C   0  0  0  0  0  0  0  0  0  0  0  0
    3.1830    1.0009   -0.5752 C   0  0  0  0  0  0  0  0  0  0  0  0
    9.5247   -3.1129    0.1779 H   0  0  0  0  0  0  0  0  0  0  0  0
   10.4911   -1.8103   -0.5501 H   0  0  0  0  0  0  0  0  0  0  0  0
    8.8225   -2.1342   -1.1282 H   0  0  0  0  0  0  0  0  0  0  0  0
    8.2628    0.1388   -0.6713 H   0  0  0  0  0  0  0  0  0  0  0  0
    9.8967    0.4676   -0.0313 H   0  0  0  0  0  0  0  0  0  0  0  0
    8.9016    0.9344    2.2350 H   0  0  0  0  0  0  0  0  0  0  0  0
    8.3006    2.0630    0.9931 H   0  0  0  0  0  0  0  0  0  0  0  0
    6.8980   -0.3078    2.0742 H   0  0  0  0  0  0  0  0  0  0  0  0
    4.7698    0.0322    2.2527 H   0  0  0  0  0  0  0  0  0  0  0  0
    2.2585   -0.4724    2.2624 H   0  0  0  0  0  0  0  0  0  0  0  0
   -0.2575   -0.5863    1.5165 H   0  0  0  0  0  0  0  0  0  0  0  0
   -2.6777    0.7350   -3.0519 H   0  0  0  0  0  0  0  0  0  0  0  0
   -3.0804   -0.7265    2.0660 H   0  0  0  0  0  0  0  0  0  0  0  0
   -5.5113    0.3393   -2.4391 H   0  0  0  0  0  0  0  0  0  0  0  0
   -7.6712    0.3783   -3.2809 H   0  0  0  0  0  0  0  0  0  0  0  0
  -10.0889    0.0902   -2.8515 H   0  0  0  0  0  0  0  0  0  0  0  0
   -9.2039   -1.9318    1.8041 H   0  0  0  0  0  0  0  0  0  0  0  0
  -10.6803   -1.0204    1.4416 H   0  0  0  0  0  0  0  0  0  0  0  0
   -9.3239   -0.2058    2.2408 H   0  0  0  0  0  0  0  0  0  0  0  0
   -7.0024   -0.6085    0.8680 H   0  0  0  0  0  0  0  0  0  0  0  0
    1.3524    1.1700   -1.7129 H   0  0  0  0  0  0  0  0  0  0  0  0
    3.8978    1.4442   -1.2508 H   0  0  0  0  0  0  0  0  0  0  0  0
  1  2  1  0
  2  3  1  0
  3  4  1  0
  4  5  1  0
  5  6  1  0
  6  7  2  0
  6  8  1  0
  8  9  1  0
  9 10  2  0
 10 11  1  0
 11 12  2  3
 12 13  1  0
 13 14  2  0
 14 15  1  0
 15 16  2  0
 16 17  1  0
 17 18  2  0
 18 19  1  0
 19 20  2  0
 20 21  1  0
 21 22  1  0
 22 23  2  0
 23 24  1  0
 24 25  2  0
 25 26  1  0
 26 27  1  0
 26 28  2  0
 11 29  1  0
 29 30  2  0
 30  9  1  0
 17 13  1  0
 28 22  1  0
 20 16  1  0
  1 31  1  0
  1 32  1  0
  1 33  1  0
  3 34  1  0
  3 35  1  0
  4 36  1  0
  4 37  1  0
  5 38  1  0
  8 39  1  0
 10 40  1  0
 12 41  1  0
 15 42  1  0
 18 43  1  0
 21 44  1  0
 23 45  1  0
 24 46  1  0
 27 47  1  0
 27 48  1  0
 27 49  1  0
 28 50  1  0
 29 51  1  0
 30 52  1  0
M  END
$$$$
