
     RDKit          3D

 53 56  0  0  0  0  0  0  0  0999 V2000
    6.6265    0.8806   -0.6714 C   0  0  0  0  0  0  0  0  0  0  0  0
    5.6790   -0.2261   -0.5534 N   0  0  0  0  0  0  0  0  0  0  0  0
    4.3101    0.2185   -0.8972 C   0  0  0  0  0  0  0  0  0  0  0  0
    3.2697   -0.9122   -0.7230 C   0  0  0  0  0  0  0  0  0  0  0  0
    3.3320   -1.4619    0.6373 N   0  0  0  0  0  0  0  0  0  0  0  0
    2.5416   -0.9577    1.6724 C   0  0  0  0  0  0  0  0  0  0  0  0
    2.9303   -0.8546    2.8337 O   0  0  0  0  0  0  0  0  0  0  0  0
    1.1498   -0.5470    1.3676 C   0  0  0  0  0  0  0  0  0  0  0  0
    0.6656    0.6483    1.9023 C   0  0  0  0  0  0  0  0  0  0  0  0
   -0.6503    1.0409    1.6485 C   0  0  0  0  0  0  0  0  0  0  0  0
   -1.5086    0.2351    0.8759 C   0  0  0  0  0  0  0  0  0  0  0  0
   -2.9426    0.7146    0.6117 C   0  0  0  0  0  0  0  0  0  0  0  0
   -3.0515    1.7698   -0.4921 C   0  0  0  0  0  0  0  0  0  0  0  0
   -4.0735    2.7286   -0.4294 C   0  0  0  0  0  0  0  0  0  0  0  0
   -4.1790    3.6681   -1.4434 C   0  0  0  0  0  0  0  0  0  0  0  0
   -3.3509    3.7201   -2.5065 N   0  0  0  0  0  0  0  0  0  0  0  0
   -2.3770    2.7884   -2.5595 C   0  0  0  0  0  0  0  0  0  0  0  0
   -2.1916    1.8067   -1.5973 C   0  0  0  0  0  0  0  0  0  0  0  0
   -3.9694   -0.4214    0.5012 C   0  0  0  0  0  0  0  0  0  0  0  0
   -4.3994   -1.0685    1.6771 C   0  0  0  0  0  0  0  0  0  0  0  0
   -5.3175   -2.1185    1.6207 C   0  0  0  0  0  0  0  0  0  0  0  0
   -5.8086   -2.5326    0.3902 C   0  0  0  0  0  0  0  0  0  0  0  0
   -6.6889   -3.5405    0.3356 F   0  0  0  0  0  0  0  0  0  0  0  0
   -5.3960   -1.9196   -0.7855 C   0  0  0  0  0  0  0  0  0  0  0  0
   -4.4762   -0.8696   -0.7328 C   0  0  0  0  0  0  0  0  0  0  0  0
   -1.0075   -0.9716    0.3555 C   0  0  0  0  0  0  0  0  0  0  0  0
    0.3091   -1.3664    0.6085 C   0  0  0  0  0  0  0  0  0  0  0  0
    4.6762   -1.9230    0.9878 C   0  0  0  0  0  0  0  0  0  0  0  0
    5.7063   -0.7880    0.8191 C   0  0  0  0  0  0  0  0  0  0  0  0
    6.3891    1.7055    0.0102 H   0  0  0  0  0  0  0  0  0  0  0  0
    6.6347    1.2710   -1.6950 H   0  0  0  0  0  0  0  0  0  0  0  0
    7.6448    0.5382   -0.4567 H   0  0  0  0  0  0  0  0  0  0  0  0
    4.2843    0.5531   -1.9410 H   0  0  0  0  0  0  0  0  0  0  0  0
    4.0195    1.0703   -0.2676 H   0  0  0  0  0  0  0  0  0  0  0  0
    2.2793   -0.5171   -0.9578 H   0  0  0  0  0  0  0  0  0  0  0  0
    3.4783   -1.7320   -1.4206 H   0  0  0  0  0  0  0  0  0  0  0  0
    1.3108    1.2714    2.5179 H   0  0  0  0  0  0  0  0  0  0  0  0
   -1.0058    1.9827    2.0635 H   0  0  0  0  0  0  0  0  0  0  0  0
   -3.2288    1.2504    1.5321 H   0  0  0  0  0  0  0  0  0  0  0  0
   -4.7838    2.7434    0.3916 H   0  0  0  0  0  0  0  0  0  0  0  0
   -4.9585    4.4246   -1.4262 H   0  0  0  0  0  0  0  0  0  0  0  0
   -1.7262    2.8498   -3.4272 H   0  0  0  0  0  0  0  0  0  0  0  0
   -1.3870    1.0903   -1.7225 H   0  0  0  0  0  0  0  0  0  0  0  0
   -4.0124   -0.7597    2.6470 H   0  0  0  0  0  0  0  0  0  0  0  0
   -5.6481   -2.6163    2.5268 H   0  0  0  0  0  0  0  0  0  0  0  0
   -5.7915   -2.2620   -1.7366 H   0  0  0  0  0  0  0  0  0  0  0  0
   -4.1643   -0.4092   -1.6677 H   0  0  0  0  0  0  0  0  0  0  0  0
   -1.6378   -1.6251   -0.2442 H   0  0  0  0  0  0  0  0  0  0  0  0
    0.6710   -2.3164    0.2224 H   0  0  0  0  0  0  0  0  0  0  0  0
    4.9220   -2.7599    0.3227 H   0  0  0  0  0  0  0  0  0  0  0  0
    4.6969   -2.3030    2.0150 H   0  0  0  0  0  0  0  0  0  0  0  0
    5.5018    0.0003    1.5557 H   0  0  0  0  0  0  0  0  0  0  0  0
    6.7038   -1.1908    1.0301 H   0  0  0  0  0  0  0  0  0  0  0  0
  1  2  1  0
  2  3  1  0
  3  4  1  0
  4  5  1  0
  5  6  1  0
  6  7  2  0
  6  8  1  0
  8  9  2  0
  9 10  1  0
 10 11  2  0
 11 12  1  0
 12 13  1  0
 13 14  2  0
 14 15  1  0
 15 16  2  0
 16 17  1  0
 17 18  2  0
 12 19  1  0
 19 20  2  0
 20 21  1  0
 21 22  2  0
 22 23  1  0
 22 24  1  0
 24 25  2  0
 11 26  1  0
 26 27  2  0
  5 28  1  0
 28 29  1  0
 29  2  1  0
 27  8  1  0
 18 13  1  0
 25 19  1  0
  1 30  1  0
  1 31  1  0
  1 32  1  0
  3 33  1  0
  3 34  1  0
  4 35  1  0
  4 36  1  0
  9 37  1  0
 10 38  1  0
 12 39  1  0
 14 40  1  0
 15 41  1  0
 17 42  1  0
 18 43  1  0
 20 44  1  0
 21 45  1  0
 24 46  1  0
 25 47  1  0
 26 48  1  0
 27 49  1  0
 28 50  1  0
 28 51  1  0
 29 52  1  0
 29 53  1  0
M  END
$$$$
