
     RDKit          3D

 49 52  0  0  0  0  0  0  0  0999 V2000
   -7.4361    1.8990   -1.1707 C   0  0  0  0  0  0  0  0  0  0  0  0
   -7.3211    0.8734   -0.0826 C   0  0  0  0  0  0  0  0  0  0  0  0
   -6.0624    0.4600    0.3529 C   0  0  0  0  0  0  0  0  0  0  0  0
   -5.9561   -0.4931    1.3656 C   0  0  0  0  0  0  0  0  0  0  0  0
   -4.7349   -0.9765    1.8705 N   0  0  0  0  0  0  0  0  0  0  0  0
   -3.4538   -0.6541    1.5038 C   0  0  0  0  0  0  0  0  0  0  0  0
   -3.0414    0.1888    0.5706 N   0  0  0  0  0  0  0  0  0  0  0  0
   -1.6482    0.1635    0.5878 C   0  0  0  0  0  0  0  0  0  0  0  0
   -1.1444   -0.6785    1.4848 C   0  0  0  0  0  0  0  0  0  0  0  0
   -2.2645   -1.2486    2.1492 C   0  0  0  0  0  0  0  0  0  0  0  0
   -1.7796   -2.0695    3.0793 C   0  0  0  0  0  0  0  0  0  0  0  0
   -0.3844   -2.1062    3.1115 N   0  0  0  0  0  0  0  0  0  0  0  0
    0.0065   -1.2962    2.1495 C   0  0  0  0  0  0  0  0  0  0  0  0
    1.3984   -0.9784    1.8109 C   0  0  0  0  0  0  0  0  0  0  0  0
    1.9143   -0.8962    0.5781 C   0  0  0  0  0  0  0  0  0  0  0  0
    1.2846   -1.1538   -0.7042 C   0  0  0  0  0  0  0  0  0  0  0  0
    2.2197   -0.9529   -1.6478 C   0  0  0  0  0  0  0  0  0  0  0  0
    3.4706   -0.5759   -1.0140 C   0  0  0  0  0  0  0  0  0  0  0  0
    4.5858   -0.3136   -1.7527 N   0  0  0  0  0  0  0  0  0  0  0  0
    5.8430   -0.0114   -1.2778 C   0  0  0  0  0  0  0  0  0  0  0  0
    6.1839    0.0251   -0.1021 O   0  0  0  0  0  0  0  0  0  0  0  0
    6.7140    0.2421   -2.3178 N   0  0  0  0  0  0  0  0  0  0  0  0
    8.0747    0.6705   -2.0325 C   0  0  0  0  0  0  0  0  0  0  0  0
    8.1301    2.1491   -1.6487 C   0  0  0  0  0  0  0  0  0  0  0  0
    7.6545    2.9371   -2.7429 O   0  0  0  0  0  0  0  0  0  0  0  0
    3.3033   -0.5497    0.3169 C   0  0  0  0  0  0  0  0  0  0  0  0
   -7.1473   -0.9958    1.8999 C   0  0  0  0  0  0  0  0  0  0  0  0
   -8.3590   -0.5332    1.4117 C   0  0  0  0  0  0  0  0  0  0  0  0
   -8.4709    0.3871    0.4357 N   0  0  0  0  0  0  0  0  0  0  0  0
   -8.4861    2.1152   -1.3930 H   0  0  0  0  0  0  0  0  0  0  0  0
   -6.9538    2.8321   -0.8634 H   0  0  0  0  0  0  0  0  0  0  0  0
   -6.9623    1.5330   -2.0868 H   0  0  0  0  0  0  0  0  0  0  0  0
   -5.1849    0.8956   -0.1106 H   0  0  0  0  0  0  0  0  0  0  0  0
   -4.8315   -1.6516    2.6171 H   0  0  0  0  0  0  0  0  0  0  0  0
   -1.0834    0.7945   -0.0853 H   0  0  0  0  0  0  0  0  0  0  0  0
   -2.3541   -2.6645    3.7756 H   0  0  0  0  0  0  0  0  0  0  0  0
    2.0389   -0.8535    2.6796 H   0  0  0  0  0  0  0  0  0  0  0  0
    0.2750   -1.4864   -0.8793 H   0  0  0  0  0  0  0  0  0  0  0  0
    2.0790   -1.0813   -2.7093 H   0  0  0  0  0  0  0  0  0  0  0  0
    4.5169   -0.4397   -2.7510 H   0  0  0  0  0  0  0  0  0  0  0  0
    6.3040    0.7137   -3.1120 H   0  0  0  0  0  0  0  0  0  0  0  0
    8.6478    0.4972   -2.9491 H   0  0  0  0  0  0  0  0  0  0  0  0
    8.4891    0.0513   -1.2303 H   0  0  0  0  0  0  0  0  0  0  0  0
    7.5071    2.3620   -0.7746 H   0  0  0  0  0  0  0  0  0  0  0  0
    9.1612    2.4458   -1.4339 H   0  0  0  0  0  0  0  0  0  0  0  0
    7.6634    3.8621   -2.4395 H   0  0  0  0  0  0  0  0  0  0  0  0
    4.0421   -0.3132    1.0661 H   0  0  0  0  0  0  0  0  0  0  0  0
   -7.1475   -1.7402    2.6880 H   0  0  0  0  0  0  0  0  0  0  0  0
   -9.3002   -0.9045    1.8067 H   0  0  0  0  0  0  0  0  0  0  0  0
  1  2  1  0
  2  3  2  0
  3  4  1  0
  4  5  1  0
  5  6  1  0
  6  7  2  0
  7  8  1  0
  8  9  2  0
  9 10  1  0
 10 11  2  0
 11 12  1  0
 12 13  2  0
 13 14  1  0
 14 15  2  3
 15 16  1  0
 16 17  2  0
 17 18  1  0
 18 19  1  0
 19 20  1  0
 20 21  2  0
 20 22  1  0
 22 23  1  0
 23 24  1  0
 24 25  1  0
 18 26  2  0
  4 27  2  0
 27 28  1  0
 28 29  2  0
 29  2  1  0
 10  6  1  0
 26 15  1  0
 13  9  1  0
  1 30  1  0
  1 31  1  0
  1 32  1  0
  3 33  1  0
  5 34  1  0
  8 35  1  0
 11 36  1  0
 14 37  1  0
 16 38  1  0
 17 39  1  0
 19 40  1  0
 22 41  1  0
 23 42  1  0
 23 43  1  0
 24 44  1  0
 24 45  1  0
 25 46  1  0
 26 47  1  0
 27 48  1  0
 28 49  1  0
M  END
$$$$
