
     RDKit          3D

 59 62  0  0  0  0  0  0  0  0999 V2000
   -3.8296   -0.4975   -2.0341 C   0  0  0  0  0  0  0  0  0  0  0  0
   -5.1053   -0.9471   -1.3799 C   0  0  0  0  0  0  0  0  0  0  0  0
   -6.2363   -1.1944   -2.1681 C   0  0  0  0  0  0  0  0  0  0  0  0
   -6.1725   -1.0429   -3.4996 F   0  0  0  0  0  0  0  0  0  0  0  0
   -7.4439   -1.5982   -1.6073 C   0  0  0  0  0  0  0  0  0  0  0  0
   -7.5433   -1.7589   -0.2297 C   0  0  0  0  0  0  0  0  0  0  0  0
   -6.4308   -1.5172    0.5779 C   0  0  0  0  0  0  0  0  0  0  0  0
   -5.2021   -1.1171    0.0192 C   0  0  0  0  0  0  0  0  0  0  0  0
   -4.0293   -0.8567    0.9370 C   0  0  0  0  0  0  0  0  0  0  0  0
   -3.8505    0.5518    1.0305 O   0  0  0  0  0  0  0  0  0  0  0  0
   -2.8271    0.9250    1.9550 C   0  0  0  0  0  0  0  0  0  0  0  0
   -3.1189    2.4015    2.3870 C   0  0  0  0  0  0  0  0  0  0  0  0
   -1.9154    3.2052    2.6609 N   0  0  0  0  0  0  0  0  0  0  0  0
   -1.0303    3.2439    1.4813 C   0  0  0  0  0  0  0  0  0  0  0  0
   -1.1468    2.0234    0.5394 C   0  0  0  0  0  0  0  0  0  0  0  0
   -1.5343    0.8209    1.2801 N   0  0  0  0  0  0  0  0  0  0  0  0
   -0.7380   -0.2707    1.5471 C   0  0  0  0  0  0  0  0  0  0  0  0
   -1.1353   -1.2719    2.1419 O   0  0  0  0  0  0  0  0  0  0  0  0
    0.6476   -0.2618    1.0468 C   0  0  0  0  0  0  0  0  0  0  0  0
    1.5651    0.5603    1.5691 C   0  0  0  0  0  0  0  0  0  0  0  0
    2.8770    0.5826    1.1728 N   0  0  0  0  0  0  0  0  0  0  0  0
    3.2103   -0.1793    0.1621 C   0  0  0  0  0  0  0  0  0  0  0  0
    4.6562   -0.1130   -0.2148 C   0  0  0  0  0  0  0  0  0  0  0  0
    5.1617   -0.6619   -1.3291 C   0  0  0  0  0  0  0  0  0  0  0  0
    6.5860   -0.5925   -1.6849 C   0  0  0  0  0  0  0  0  0  0  0  0
    7.3418    0.5754   -1.5143 C   0  0  0  0  0  0  0  0  0  0  0  0
    8.6875    0.6116   -1.8890 C   0  0  0  0  0  0  0  0  0  0  0  0
    9.2880   -0.5154   -2.4459 C   0  0  0  0  0  0  0  0  0  0  0  0
    8.5427   -1.6781   -2.6339 C   0  0  0  0  0  0  0  0  0  0  0  0
    7.1966   -1.7146   -2.2611 C   0  0  0  0  0  0  0  0  0  0  0  0
    2.3180   -0.9841   -0.5178 N   0  0  0  0  0  0  0  0  0  0  0  0
    1.0048   -1.2772    0.0296 C   0  0  0  0  0  0  0  0  0  0  0  0
   -3.9243   -0.4488   -3.1236 H   0  0  0  0  0  0  0  0  0  0  0  0
   -3.0181   -1.1977   -1.8121 H   0  0  0  0  0  0  0  0  0  0  0  0
   -3.5539    0.5024   -1.6856 H   0  0  0  0  0  0  0  0  0  0  0  0
   -8.2988   -1.7795   -2.2508 H   0  0  0  0  0  0  0  0  0  0  0  0
   -8.4845   -2.0679    0.2172 H   0  0  0  0  0  0  0  0  0  0  0  0
   -6.5282   -1.6395    1.6553 H   0  0  0  0  0  0  0  0  0  0  0  0
   -4.2219   -1.2782    1.9308 H   0  0  0  0  0  0  0  0  0  0  0  0
   -3.1383   -1.3435    0.5298 H   0  0  0  0  0  0  0  0  0  0  0  0
   -2.8512    0.2882    2.8482 H   0  0  0  0  0  0  0  0  0  0  0  0
   -3.7496    2.3809    3.2840 H   0  0  0  0  0  0  0  0  0  0  0  0
   -3.7192    2.9087    1.6189 H   0  0  0  0  0  0  0  0  0  0  0  0
   -2.1771    4.1528    2.9304 H   0  0  0  0  0  0  0  0  0  0  0  0
   -0.0017    3.3216    1.8496 H   0  0  0  0  0  0  0  0  0  0  0  0
   -1.2244    4.1536    0.9005 H   0  0  0  0  0  0  0  0  0  0  0  0
   -1.9382    2.2054   -0.1991 H   0  0  0  0  0  0  0  0  0  0  0  0
   -0.2221    1.8833   -0.0258 H   0  0  0  0  0  0  0  0  0  0  0  0
    1.3072    1.2530    2.3661 H   0  0  0  0  0  0  0  0  0  0  0  0
    5.2782    0.4314    0.4903 H   0  0  0  0  0  0  0  0  0  0  0  0
    4.5362   -1.1988   -2.0346 H   0  0  0  0  0  0  0  0  0  0  0  0
    6.8904    1.4727   -1.0970 H   0  0  0  0  0  0  0  0  0  0  0  0
    9.2646    1.5225   -1.7487 H   0  0  0  0  0  0  0  0  0  0  0  0
   10.3352   -0.4865   -2.7362 H   0  0  0  0  0  0  0  0  0  0  0  0
    9.0090   -2.5569   -3.0697 H   0  0  0  0  0  0  0  0  0  0  0  0
    6.6330   -2.6323   -2.4155 H   0  0  0  0  0  0  0  0  0  0  0  0
    2.7155   -1.7447   -1.0534 H   0  0  0  0  0  0  0  0  0  0  0  0
    1.0107   -2.2777    0.4761 H   0  0  0  0  0  0  0  0  0  0  0  0
    0.2782   -1.2754   -0.7897 H   0  0  0  0  0  0  0  0  0  0  0  0
  1  2  1  0
  2  3  2  0
  3  4  1  0
  3  5  1  0
  5  6  2  0
  6  7  1  0
  7  8  2  0
  8  9  1  0
  9 10  1  0
 10 11  1  0
 11 12  1  0
 12 13  1  0
 13 14  1  0
 14 15  1  0
 15 16  1  0
 16 17  1  0
 17 18  2  0
 17 19  1  0
 19 20  2  0
 20 21  1  0
 21 22  2  0
 22 23  1  0
 23 24  2  0
 24 25  1  0
 25 26  2  0
 26 27  1  0
 27 28  2  0
 28 29  1  0
 29 30  2  0
 22 31  1  0
 31 32  1  0
  8  2  1  0
 16 11  1  0
 32 19  1  0
 30 25  1  0
  1 33  1  0
  1 34  1  0
  1 35  1  0
  5 36  1  0
  6 37  1  0
  7 38  1  0
  9 39  1  0
  9 40  1  0
 11 41  1  0
 12 42  1  0
 12 43  1  0
 13 44  1  0
 14 45  1  0
 14 46  1  0
 15 47  1  0
 15 48  1  0
 20 49  1  0
 23 50  1  0
 24 51  1  0
 26 52  1  0
 27 53  1  0
 28 54  1  0
 29 55  1  0
 30 56  1  0
 31 57  1  0
 32 58  1  0
 32 59  1  0
M  END
$$$$
