
     RDKit          3D

 50 52  0  0  0  0  0  0  0  0999 V2000
    0.4491    2.5358   -1.0147 C   0  0  0  0  0  0  0  0  0  0  0  0
   -0.2625    1.3470   -0.6876 O   0  0  0  0  0  0  0  0  0  0  0  0
    0.4602    0.2348   -0.3269 C   0  0  0  0  0  0  0  0  0  0  0  0
    1.8654    0.1765   -0.3984 C   0  0  0  0  0  0  0  0  0  0  0  0
    2.5586   -0.9747   -0.0128 C   0  0  0  0  0  0  0  0  0  0  0  0
    3.9143   -1.1489   -0.0364 O   0  0  0  0  0  0  0  0  0  0  0  0
    4.7127   -0.0633   -0.4989 C   0  0  0  0  0  0  0  0  0  0  0  0
    6.1598   -0.4838   -0.4386 C   0  0  0  0  0  0  0  0  0  0  0  0
    6.7538   -1.1455   -1.5227 C   0  0  0  0  0  0  0  0  0  0  0  0
    8.0896   -1.5461   -1.4617 C   0  0  0  0  0  0  0  0  0  0  0  0
    8.8411   -1.2978   -0.3146 C   0  0  0  0  0  0  0  0  0  0  0  0
    8.2566   -0.6548    0.7750 C   0  0  0  0  0  0  0  0  0  0  0  0
    6.9210   -0.2534    0.7161 C   0  0  0  0  0  0  0  0  0  0  0  0
    1.8464   -2.0787    0.4471 C   0  0  0  0  0  0  0  0  0  0  0  0
    0.4544   -2.0404    0.5186 C   0  0  0  0  0  0  0  0  0  0  0  0
   -0.2564   -0.8923    0.1301 C   0  0  0  0  0  0  0  0  0  0  0  0
   -1.7516   -0.9750    0.2491 C   0  0  0  0  0  0  0  0  0  0  0  0
   -2.2752   -1.9361    0.8064 O   0  0  0  0  0  0  0  0  0  0  0  0
   -2.4936    0.0510   -0.2881 N   0  0  0  0  0  0  0  0  0  0  0  0
   -3.9377    0.1043   -0.1798 C   0  0  0  0  0  0  0  0  0  0  0  0
   -4.3936    0.5969    1.1950 C   0  0  0  0  0  0  0  0  0  0  0  0
   -5.8959    0.6985    1.2823 C   0  0  0  0  0  0  0  0  0  0  0  0
   -6.6621   -0.4330    1.5931 C   0  0  0  0  0  0  0  0  0  0  0  0
   -8.0535   -0.3490    1.6561 C   0  0  0  0  0  0  0  0  0  0  0  0
   -8.6914    0.8645    1.4059 C   0  0  0  0  0  0  0  0  0  0  0  0
   -7.9386    1.9947    1.0915 C   0  0  0  0  0  0  0  0  0  0  0  0
   -6.5466    1.9128    1.0277 C   0  0  0  0  0  0  0  0  0  0  0  0
    1.0312    2.4040   -1.9324 H   0  0  0  0  0  0  0  0  0  0  0  0
   -0.2877    3.3234   -1.1998 H   0  0  0  0  0  0  0  0  0  0  0  0
    1.0817    2.8616   -0.1826 H   0  0  0  0  0  0  0  0  0  0  0  0
    2.4219    1.0314   -0.7592 H   0  0  0  0  0  0  0  0  0  0  0  0
    4.5650    0.8217    0.1329 H   0  0  0  0  0  0  0  0  0  0  0  0
    4.4538    0.1942   -1.5338 H   0  0  0  0  0  0  0  0  0  0  0  0
    6.1754   -1.3594   -2.4188 H   0  0  0  0  0  0  0  0  0  0  0  0
    8.5418   -2.0586   -2.3067 H   0  0  0  0  0  0  0  0  0  0  0  0
    9.8798   -1.6139   -0.2662 H   0  0  0  0  0  0  0  0  0  0  0  0
    8.8393   -0.4722    1.6742 H   0  0  0  0  0  0  0  0  0  0  0  0
    6.4745    0.2341    1.5799 H   0  0  0  0  0  0  0  0  0  0  0  0
    2.3763   -2.9789    0.7512 H   0  0  0  0  0  0  0  0  0  0  0  0
   -0.0770   -2.9199    0.8794 H   0  0  0  0  0  0  0  0  0  0  0  0
   -1.9966    0.8508   -0.6658 H   0  0  0  0  0  0  0  0  0  0  0  0
   -4.2923    0.7753   -0.9700 H   0  0  0  0  0  0  0  0  0  0  0  0
   -4.3402   -0.8946   -0.3849 H   0  0  0  0  0  0  0  0  0  0  0  0
   -4.0287   -0.0715    1.9853 H   0  0  0  0  0  0  0  0  0  0  0  0
   -3.9434    1.5749    1.4099 H   0  0  0  0  0  0  0  0  0  0  0  0
   -6.1754   -1.3872    1.7878 H   0  0  0  0  0  0  0  0  0  0  0  0
   -8.6388   -1.2316    1.9002 H   0  0  0  0  0  0  0  0  0  0  0  0
   -9.7749    0.9289    1.4558 H   0  0  0  0  0  0  0  0  0  0  0  0
   -8.4364    2.9407    0.8959 H   0  0  0  0  0  0  0  0  0  0  0  0
   -5.9735    2.8030    0.7798 H   0  0  0  0  0  0  0  0  0  0  0  0
  1  2  1  0
  2  3  1  0
  3  4  2  0
  4  5  1  0
  5  6  1  0
  6  7  1  0
  7  8  1  0
  8  9  2  0
  9 10  1  0
 10 11  2  0
 11 12  1  0
 12 13  2  0
  5 14  2  0
 14 15  1  0
 15 16  2  0
 16 17  1  0
 17 18  2  0
 17 19  1  0
 19 20  1  0
 20 21  1  0
 21 22  1  0
 22 23  2  0
 23 24  1  0
 24 25  2  0
 25 26  1  0
 26 27  2  0
 16  3  1  0
 27 22  1  0
 13  8  1  0
  1 28  1  0
  1 29  1  0
  1 30  1  0
  4 31  1  0
  7 32  1  0
  7 33  1  0
  9 34  1  0
 10 35  1  0
 11 36  1  0
 12 37  1  0
 13 38  1  0
 14 39  1  0
 15 40  1  0
 19 41  1  0
 20 42  1  0
 20 43  1  0
 21 44  1  0
 21 45  1  0
 23 46  1  0
 24 47  1  0
 25 48  1  0
 26 49  1  0
 27 50  1  0
M  END
$$$$
