
     RDKit          3D

 47 48  0  0  0  0  0  0  0  0999 V2000
    7.7194   -0.0235    0.4097 N   0  0  0  0  0  0  0  0  0  0  0  0
    6.2745   -0.1738    0.2754 C   0  0  0  0  0  0  0  0  0  0  0  0
    5.5876    1.1849    0.4103 C   0  0  0  0  0  0  0  0  0  0  0  0
    4.0580    1.0963    0.3656 C   0  0  0  0  0  0  0  0  0  0  0  0
    3.5183    0.6238   -0.9869 C   0  0  0  0  0  0  0  0  0  0  0  0
    1.9960    0.7463   -1.1061 C   0  0  0  0  0  0  0  0  0  0  0  0
    1.2351   -0.1596   -0.1341 C   0  0  0  0  0  0  0  0  0  0  0  0
   -0.1947   -0.0736   -0.4172 N   0  0  0  0  0  0  0  0  0  0  0  0
   -1.1027   -0.6965    0.4649 C   0  0  0  0  0  0  0  0  0  0  0  0
   -0.7677   -1.8639    1.1687 C   0  0  0  0  0  0  0  0  0  0  0  0
   -1.6999   -2.5099    1.9803 C   0  0  0  0  0  0  0  0  0  0  0  0
   -1.2911   -3.6275    2.6478 O   0  0  0  0  0  0  0  0  0  0  0  0
   -2.9976   -2.0333    2.1020 C   0  0  0  0  0  0  0  0  0  0  0  0
   -3.3729   -0.8996    1.3839 C   0  0  0  0  0  0  0  0  0  0  0  0
   -2.4442   -0.2476    0.5515 C   0  0  0  0  0  0  0  0  0  0  0  0
   -2.8766    0.9669   -0.1987 C   0  0  0  0  0  0  0  0  0  0  0  0
   -2.1010    1.9089   -0.3472 O   0  0  0  0  0  0  0  0  0  0  0  0
   -4.2250    1.0571   -0.7813 C   0  0  0  0  0  0  0  0  0  0  0  0
   -4.9897    2.2048   -0.5868 C   0  0  0  0  0  0  0  0  0  0  0  0
   -4.5441    3.2107    0.1789 F   0  0  0  0  0  0  0  0  0  0  0  0
   -6.2598    2.3184   -1.1526 C   0  0  0  0  0  0  0  0  0  0  0  0
   -6.7727    1.2780   -1.9279 C   0  0  0  0  0  0  0  0  0  0  0  0
   -6.0101    0.1276   -2.1316 C   0  0  0  0  0  0  0  0  0  0  0  0
   -4.7418    0.0244   -1.5607 C   0  0  0  0  0  0  0  0  0  0  0  0
   -4.0320   -1.0893   -1.7881 F   0  0  0  0  0  0  0  0  0  0  0  0
    7.9413    0.3592    1.3279 H   0  0  0  0  0  0  0  0  0  0  0  0
    8.1597   -0.9418    0.3690 H   0  0  0  0  0  0  0  0  0  0  0  0
    6.0619   -0.6181   -0.7015 H   0  0  0  0  0  0  0  0  0  0  0  0
    5.9082   -0.8621    1.0448 H   0  0  0  0  0  0  0  0  0  0  0  0
    5.8720    1.6425    1.3668 H   0  0  0  0  0  0  0  0  0  0  0  0
    5.9382    1.8623   -0.3787 H   0  0  0  0  0  0  0  0  0  0  0  0
    3.7150    0.4282    1.1638 H   0  0  0  0  0  0  0  0  0  0  0  0
    3.6517    2.0911    0.5863 H   0  0  0  0  0  0  0  0  0  0  0  0
    3.8083   -0.4176   -1.1667 H   0  0  0  0  0  0  0  0  0  0  0  0
    3.9731    1.2232   -1.7851 H   0  0  0  0  0  0  0  0  0  0  0  0
    1.6961    1.7908   -0.9531 H   0  0  0  0  0  0  0  0  0  0  0  0
    1.7091    0.4919   -2.1346 H   0  0  0  0  0  0  0  0  0  0  0  0
    1.5859   -1.1894   -0.2643 H   0  0  0  0  0  0  0  0  0  0  0  0
    1.4293    0.1523    0.8982 H   0  0  0  0  0  0  0  0  0  0  0  0
   -0.4962    0.8995   -0.5731 H   0  0  0  0  0  0  0  0  0  0  0  0
    0.2240   -2.2979    1.0928 H   0  0  0  0  0  0  0  0  0  0  0  0
   -2.0397   -3.9839    3.1534 H   0  0  0  0  0  0  0  0  0  0  0  0
   -3.7235   -2.5278    2.7396 H   0  0  0  0  0  0  0  0  0  0  0  0
   -4.3879   -0.5273    1.4911 H   0  0  0  0  0  0  0  0  0  0  0  0
   -6.8401    3.2214   -0.9832 H   0  0  0  0  0  0  0  0  0  0  0  0
   -7.7606    1.3654   -2.3745 H   0  0  0  0  0  0  0  0  0  0  0  0
   -6.3912   -0.6888   -2.7390 H   0  0  0  0  0  0  0  0  0  0  0  0
  1  2  1  0
  2  3  1  0
  3  4  1  0
  4  5  1  0
  5  6  1  0
  6  7  1  0
  7  8  1  0
  8  9  1  0
  9 10  2  0
 10 11  1  0
 11 12  1  0
 11 13  2  0
 13 14  1  0
 14 15  2  0
 15 16  1  0
 16 17  2  0
 16 18  1  0
 18 19  2  0
 19 20  1  0
 19 21  1  0
 21 22  2  0
 22 23  1  0
 23 24  2  0
 24 25  1  0
 15  9  1  0
 24 18  1  0
  1 26  1  0
  1 27  1  0
  2 28  1  0
  2 29  1  0
  3 30  1  0
  3 31  1  0
  4 32  1  0
  4 33  1  0
  5 34  1  0
  5 35  1  0
  6 36  1  0
  6 37  1  0
  7 38  1  0
  7 39  1  0
  8 40  1  0
 10 41  1  0
 12 42  1  0
 13 43  1  0
 14 44  1  0
 21 45  1  0
 22 46  1  0
 23 47  1  0
M  END
$$$$
