
     RDKit          3D

 50 52  0  0  0  0  0  0  0  0999 V2000
   -2.2389   -1.4321    2.7977 C   0  0  0  0  0  0  0  0  0  0  0  0
   -1.1741   -0.9863    1.9628 O   0  0  0  0  0  0  0  0  0  0  0  0
   -1.5863   -0.8806    0.6480 C   0  0  0  0  0  0  0  0  0  0  0  0
   -1.6355   -1.9191   -0.2097 C   0  0  0  0  0  0  0  0  0  0  0  0
   -1.0633   -3.2179    0.0656 C   0  0  0  0  0  0  0  0  0  0  0  0
    0.1028   -3.6122   -0.4783 C   0  0  0  0  0  0  0  0  0  0  0  0
    0.8634   -2.9162   -1.3916 N   0  0  0  0  0  0  0  0  0  0  0  0
    1.3486   -1.7679   -1.0323 C   0  0  0  0  0  0  0  0  0  0  0  0
    1.1744   -1.2230    0.1948 O   0  0  0  0  0  0  0  0  0  0  0  0
    1.6465    0.0853    0.3544 C   0  0  0  0  0  0  0  0  0  0  0  0
    3.0840    0.1416    0.7065 C   0  0  0  0  0  0  0  0  0  0  0  0
    3.5758   -0.6582    1.7547 C   0  0  0  0  0  0  0  0  0  0  0  0
    4.9341   -0.6510    2.0895 C   0  0  0  0  0  0  0  0  0  0  0  0
    5.8029    0.1536    1.3639 C   0  0  0  0  0  0  0  0  0  0  0  0
    7.1417    0.2032    1.6386 O   0  0  0  0  0  0  0  0  0  0  0  0
    5.3261    0.9409    0.3188 C   0  0  0  0  0  0  0  0  0  0  0  0
    6.1921    1.7215   -0.3938 O   0  0  0  0  0  0  0  0  0  0  0  0
    3.9788    0.9429   -0.0165 C   0  0  0  0  0  0  0  0  0  0  0  0
    0.8452    1.1756    0.3549 C   0  0  0  0  0  0  0  0  0  0  0  0
    1.4088    2.4147    0.6501 O   0  0  0  0  0  0  0  0  0  0  0  0
   -0.5744    1.3021    0.0192 C   0  0  0  0  0  0  0  0  0  0  0  0
   -1.6465    0.4836    0.1389 C   0  0  0  0  0  0  0  0  0  0  0  0
   -2.9451    1.0624   -0.3057 C   0  0  0  0  0  0  0  0  0  0  0  0
   -3.8079    1.5467    0.6941 C   0  0  0  0  0  0  0  0  0  0  0  0
   -5.0448    2.1027    0.3686 C   0  0  0  0  0  0  0  0  0  0  0  0
   -5.4385    2.1801   -0.9622 C   0  0  0  0  0  0  0  0  0  0  0  0
   -4.5938    1.7072   -1.9664 C   0  0  0  0  0  0  0  0  0  0  0  0
   -3.3362    1.1569   -1.6586 C   0  0  0  0  0  0  0  0  0  0  0  0
   -2.5006    0.6377   -2.7980 C   0  0  0  0  0  0  0  0  0  0  0  0
   -3.0892   -0.7436    2.7558 H   0  0  0  0  0  0  0  0  0  0  0  0
   -2.5606   -2.4443    2.5329 H   0  0  0  0  0  0  0  0  0  0  0  0
   -1.8713   -1.4536    3.8284 H   0  0  0  0  0  0  0  0  0  0  0  0
   -1.8612   -1.7454   -1.2590 H   0  0  0  0  0  0  0  0  0  0  0  0
   -1.5872   -3.8647    0.7605 H   0  0  0  0  0  0  0  0  0  0  0  0
    0.4808   -4.6032   -0.2353 H   0  0  0  0  0  0  0  0  0  0  0  0
    1.9399   -1.1533   -1.7279 H   0  0  0  0  0  0  0  0  0  0  0  0
    2.8913   -1.2890    2.3199 H   0  0  0  0  0  0  0  0  0  0  0  0
    5.2836   -1.2731    2.9068 H   0  0  0  0  0  0  0  0  0  0  0  0
    7.3178   -0.3962    2.3840 H   0  0  0  0  0  0  0  0  0  0  0  0
    7.0619    1.5636    0.0240 H   0  0  0  0  0  0  0  0  0  0  0  0
    3.6324    1.5681   -0.8346 H   0  0  0  0  0  0  0  0  0  0  0  0
    0.7125    2.9887    1.0116 H   0  0  0  0  0  0  0  0  0  0  0  0
   -0.7799    2.2842   -0.4160 H   0  0  0  0  0  0  0  0  0  0  0  0
   -3.5144    1.4942    1.7404 H   0  0  0  0  0  0  0  0  0  0  0  0
   -5.6995    2.4712    1.1539 H   0  0  0  0  0  0  0  0  0  0  0  0
   -6.4044    2.6065   -1.2208 H   0  0  0  0  0  0  0  0  0  0  0  0
   -4.9231    1.7695   -3.0021 H   0  0  0  0  0  0  0  0  0  0  0  0
   -2.7982   -0.3869   -3.0408 H   0  0  0  0  0  0  0  0  0  0  0  0
   -2.6396    1.2599   -3.6894 H   0  0  0  0  0  0  0  0  0  0  0  0
   -1.4312    0.6532   -2.5749 H   0  0  0  0  0  0  0  0  0  0  0  0
  1  2  1  0
  2  3  1  0
  3  4  2  3
  4  5  1  0
  5  6  2  3
  6  7  1  0
  7  8  2  3
  8  9  1  0
  9 10  1  0
 10 11  1  0
 11 12  2  0
 12 13  1  0
 13 14  2  0
 14 15  1  0
 14 16  1  0
 16 17  1  0
 16 18  2  0
 10 19  2  3
 19 20  1  0
 19 21  1  0
 21 22  2  3
 22 23  1  0
 23 24  2  0
 24 25  1  0
 25 26  2  0
 26 27  1  0
 27 28  2  0
 28 29  1  0
 22  3  1  0
 28 23  1  0
 18 11  1  0
  1 30  1  0
  1 31  1  0
  1 32  1  0
  4 33  1  0
  5 34  1  0
  6 35  1  0
  8 36  1  0
 12 37  1  0
 13 38  1  0
 15 39  1  0
 17 40  1  0
 18 41  1  0
 20 42  1  0
 21 43  1  0
 24 44  1  0
 25 45  1  0
 26 46  1  0
 27 47  1  0
 29 48  1  0
 29 49  1  0
 29 50  1  0
M  END
$$$$
