
     RDKit          3D

 45 47  0  0  0  0  0  0  0  0999 V2000
    6.9096   -0.4556    0.5994 C   0  0  0  0  0  0  0  0  0  0  0  0
    5.8306   -0.3387    1.5180 O   0  0  0  0  0  0  0  0  0  0  0  0
    4.6371    0.1009    1.0150 C   0  0  0  0  0  0  0  0  0  0  0  0
    4.3849    0.4547   -0.3101 C   0  0  0  0  0  0  0  0  0  0  0  0
    3.1098    0.8907   -0.6912 C   0  0  0  0  0  0  0  0  0  0  0  0
    2.0671    0.9768    0.2428 C   0  0  0  0  0  0  0  0  0  0  0  0
    0.7299    1.4417   -0.1602 C   0  0  0  0  0  0  0  0  0  0  0  0
    0.5367    2.8268   -0.3003 C   0  0  0  0  0  0  0  0  0  0  0  0
   -0.7023    3.3445   -0.6483 C   0  0  0  0  0  0  0  0  0  0  0  0
   -1.7746    2.4824   -0.8464 C   0  0  0  0  0  0  0  0  0  0  0  0
   -1.6390    1.0813   -0.7105 C   0  0  0  0  0  0  0  0  0  0  0  0
   -2.9166    0.2560   -0.9418 C   0  0  0  0  0  0  0  0  0  0  0  0
   -3.0090   -0.2961   -2.3696 C   0  0  0  0  0  0  0  0  0  0  0  0
   -4.1539    0.0157   -3.0585 N   0  0  0  0  0  0  0  0  0  0  0  0
   -2.1590   -0.9912   -2.9200 O   0  0  0  0  0  0  0  0  0  0  0  0
   -3.2813   -0.7463    0.1483 C   0  0  0  0  0  0  0  0  0  0  0  0
   -3.2527   -2.1286   -0.0465 C   0  0  0  0  0  0  0  0  0  0  0  0
   -3.6155   -2.9747    1.0000 C   0  0  0  0  0  0  0  0  0  0  0  0
   -4.0050   -2.4308    2.2155 C   0  0  0  0  0  0  0  0  0  0  0  0
   -4.0212   -1.0542    2.3341 C   0  0  0  0  0  0  0  0  0  0  0  0
   -3.6814   -0.2104    1.3352 N   0  0  0  0  0  0  0  0  0  0  0  0
   -0.3576    0.5518   -0.3961 C   0  0  0  0  0  0  0  0  0  0  0  0
   -0.1280   -0.9340   -0.2534 C   0  0  0  0  0  0  0  0  0  0  0  0
    2.3322    0.6224    1.5721 C   0  0  0  0  0  0  0  0  0  0  0  0
    3.6053    0.1882    1.9517 C   0  0  0  0  0  0  0  0  0  0  0  0
    7.7809   -0.8201    1.1521 H   0  0  0  0  0  0  0  0  0  0  0  0
    6.6837   -1.1858   -0.1847 H   0  0  0  0  0  0  0  0  0  0  0  0
    7.1708    0.5178    0.1711 H   0  0  0  0  0  0  0  0  0  0  0  0
    5.1530    0.4034   -1.0740 H   0  0  0  0  0  0  0  0  0  0  0  0
    2.9277    1.1587   -1.7303 H   0  0  0  0  0  0  0  0  0  0  0  0
    1.3653    3.5107   -0.1253 H   0  0  0  0  0  0  0  0  0  0  0  0
   -0.8360    4.4177   -0.7507 H   0  0  0  0  0  0  0  0  0  0  0  0
   -2.7383    2.9206   -1.1013 H   0  0  0  0  0  0  0  0  0  0  0  0
   -3.7466    0.9781   -0.8731 H   0  0  0  0  0  0  0  0  0  0  0  0
   -4.9755    0.3957   -2.6079 H   0  0  0  0  0  0  0  0  0  0  0  0
   -4.2599   -0.3963   -3.9769 H   0  0  0  0  0  0  0  0  0  0  0  0
   -2.9384   -2.5650   -0.9902 H   0  0  0  0  0  0  0  0  0  0  0  0
   -3.5865   -4.0525    0.8650 H   0  0  0  0  0  0  0  0  0  0  0  0
   -4.2866   -3.0631    3.0494 H   0  0  0  0  0  0  0  0  0  0  0  0
   -4.3166   -0.5752    3.2631 H   0  0  0  0  0  0  0  0  0  0  0  0
    0.9117   -1.2150   -0.4463 H   0  0  0  0  0  0  0  0  0  0  0  0
   -0.7022   -1.5026   -0.9843 H   0  0  0  0  0  0  0  0  0  0  0  0
   -0.3895   -1.2586    0.7582 H   0  0  0  0  0  0  0  0  0  0  0  0
    1.5440    0.6834    2.3195 H   0  0  0  0  0  0  0  0  0  0  0  0
    3.7928   -0.0843    2.9872 H   0  0  0  0  0  0  0  0  0  0  0  0
  1  2  1  0
  2  3  1  0
  3  4  2  0
  4  5  1  0
  5  6  2  0
  6  7  1  0
  7  8  2  0
  8  9  1  0
  9 10  2  0
 10 11  1  0
 11 12  1  0
 12 13  1  0
 13 14  1  0
 13 15  2  0
 12 16  1  0
 16 17  2  0
 17 18  1  0
 18 19  2  0
 19 20  1  0
 20 21  2  0
 11 22  2  0
 22 23  1  0
  6 24  1  0
 24 25  2  0
 25  3  1  0
 22  7  1  0
 21 16  1  0
  1 26  1  0
  1 27  1  0
  1 28  1  0
  4 29  1  0
  5 30  1  0
  8 31  1  0
  9 32  1  0
 10 33  1  0
 12 34  1  0
 14 35  1  0
 14 36  1  0
 17 37  1  0
 18 38  1  0
 19 39  1  0
 20 40  1  0
 23 41  1  0
 23 42  1  0
 23 43  1  0
 24 44  1  0
 25 45  1  0
M  END
$$$$
