
     RDKit          3D

 46 48  0  0  0  0  0  0  0  0999 V2000
    0.4299   -0.6333    0.8509 C   0  0  0  0  0  0  0  0  0  0  0  0
    0.3286    0.0703   -0.4840 C   0  0  0  0  0  0  0  0  0  0  0  0
   -0.8852    0.0622   -1.2151 C   0  0  0  0  0  0  0  0  0  0  0  0
   -2.1262   -0.5871   -0.7077 C   0  0  0  0  0  0  0  0  0  0  0  0
   -2.9726    0.2449   -0.0589 C   0  0  0  0  0  0  0  0  0  0  0  0
   -4.2431    0.0281    0.6542 C   0  0  0  0  0  0  0  0  0  0  0  0
   -4.9368    1.1247    1.1693 C   0  0  0  0  0  0  0  0  0  0  0  0
   -6.1171    0.9132    1.8803 C   0  0  0  0  0  0  0  0  0  0  0  0
   -6.5749   -0.3845    2.0624 C   0  0  0  0  0  0  0  0  0  0  0  0
   -5.8293   -1.4178    1.5214 C   0  0  0  0  0  0  0  0  0  0  0  0
   -4.6857   -1.2387    0.8168 N   0  0  0  0  0  0  0  0  0  0  0  0
   -2.2499   -2.0644   -0.9531 C   0  0  0  0  0  0  0  0  0  0  0  0
   -3.4960   -2.5661   -1.1418 N   0  0  0  0  0  0  0  0  0  0  0  0
   -1.2696   -2.7986   -1.0499 O   0  0  0  0  0  0  0  0  0  0  0  0
   -0.9550    0.6948   -2.4683 C   0  0  0  0  0  0  0  0  0  0  0  0
    0.1605    1.3265   -3.0068 C   0  0  0  0  0  0  0  0  0  0  0  0
    1.3618    1.3213   -2.3038 C   0  0  0  0  0  0  0  0  0  0  0  0
    1.4724    0.6896   -1.0507 C   0  0  0  0  0  0  0  0  0  0  0  0
    2.7861    0.6796   -0.3891 C   0  0  0  0  0  0  0  0  0  0  0  0
    3.2765    1.8267    0.2532 C   0  0  0  0  0  0  0  0  0  0  0  0
    4.5290    1.8169    0.8744 C   0  0  0  0  0  0  0  0  0  0  0  0
    5.3095    0.6546    0.8681 C   0  0  0  0  0  0  0  0  0  0  0  0
    6.6309    0.6881    1.5488 C   0  0  0  0  0  0  0  0  0  0  0  0
    7.1429   -0.5021    1.9859 N   0  0  0  0  0  0  0  0  0  0  0  0
    7.2249    1.7397    1.7504 O   0  0  0  0  0  0  0  0  0  0  0  0
    4.8387   -0.4903    0.2155 C   0  0  0  0  0  0  0  0  0  0  0  0
    3.5861   -0.4744   -0.4076 C   0  0  0  0  0  0  0  0  0  0  0  0
    0.8161   -1.6476    0.7092 H   0  0  0  0  0  0  0  0  0  0  0  0
   -0.5346   -0.6971    1.3619 H   0  0  0  0  0  0  0  0  0  0  0  0
    1.0878   -0.0909    1.5375 H   0  0  0  0  0  0  0  0  0  0  0  0
   -2.6669    1.2927   -0.0080 H   0  0  0  0  0  0  0  0  0  0  0  0
   -4.5711    2.1379    1.0336 H   0  0  0  0  0  0  0  0  0  0  0  0
   -6.6590    1.7539    2.3065 H   0  0  0  0  0  0  0  0  0  0  0  0
   -7.4804   -0.5874    2.6229 H   0  0  0  0  0  0  0  0  0  0  0  0
   -6.1368   -2.4551    1.6481 H   0  0  0  0  0  0  0  0  0  0  0  0
   -3.5439   -3.5752   -1.1392 H   0  0  0  0  0  0  0  0  0  0  0  0
   -4.2611   -2.0864   -0.6688 H   0  0  0  0  0  0  0  0  0  0  0  0
   -1.8840    0.6875   -3.0357 H   0  0  0  0  0  0  0  0  0  0  0  0
    0.0996    1.8077   -3.9800 H   0  0  0  0  0  0  0  0  0  0  0  0
    2.2335    1.7992   -2.7485 H   0  0  0  0  0  0  0  0  0  0  0  0
    2.6780    2.7358    0.2806 H   0  0  0  0  0  0  0  0  0  0  0  0
    4.8927    2.7168    1.3672 H   0  0  0  0  0  0  0  0  0  0  0  0
    7.9650   -0.4336    2.5725 H   0  0  0  0  0  0  0  0  0  0  0  0
    6.5596   -1.3182    2.1037 H   0  0  0  0  0  0  0  0  0  0  0  0
    5.4385   -1.3933    0.1592 H   0  0  0  0  0  0  0  0  0  0  0  0
    3.2310   -1.3705   -0.9147 H   0  0  0  0  0  0  0  0  0  0  0  0
  1  2  1  0
  2  3  2  0
  3  4  1  0
  4  5  2  3
  5  6  1  0
  6  7  2  0
  7  8  1  0
  8  9  2  0
  9 10  1  0
 10 11  2  0
  4 12  1  0
 12 13  1  0
 12 14  2  0
  3 15  1  0
 15 16  2  0
 16 17  1  0
 17 18  2  0
 18 19  1  0
 19 20  2  0
 20 21  1  0
 21 22  2  0
 22 23  1  0
 23 24  1  0
 23 25  2  0
 22 26  1  0
 26 27  2  0
 18  2  1  0
 27 19  1  0
 11  6  1  0
  1 28  1  0
  1 29  1  0
  1 30  1  0
  5 31  1  0
  7 32  1  0
  8 33  1  0
  9 34  1  0
 10 35  1  0
 13 36  1  0
 13 37  1  0
 15 38  1  0
 16 39  1  0
 17 40  1  0
 20 41  1  0
 21 42  1  0
 24 43  1  0
 24 44  1  0
 26 45  1  0
 27 46  1  0
M  END
$$$$
