
     RDKit          3D

 45 47  0  0  0  0  0  0  0  0999 V2000
   -0.1964    0.5553    0.8592 C   0  0  0  0  0  0  0  0  0  0  0  0
   -0.2137   -0.7091    0.0284 C   0  0  0  0  0  0  0  0  0  0  0  0
    0.9245   -1.0463   -0.7555 C   0  0  0  0  0  0  0  0  0  0  0  0
    2.1390   -0.2151   -0.7973 C   0  0  0  0  0  0  0  0  0  0  0  0
    2.4404    0.5612   -1.9248 C   0  0  0  0  0  0  0  0  0  0  0  0
    3.6014    1.3382   -1.9636 C   0  0  0  0  0  0  0  0  0  0  0  0
    4.4863    1.3568   -0.8811 C   0  0  0  0  0  0  0  0  0  0  0  0
    5.5767    2.1585   -1.0584 O   0  0  0  0  0  0  0  0  0  0  0  0
    6.4915    2.2762    0.0176 C   0  0  0  0  0  0  0  0  0  0  0  0
    7.4751    3.1308   -0.3434 F   0  0  0  0  0  0  0  0  0  0  0  0
    5.8901    2.7739    1.1200 F   0  0  0  0  0  0  0  0  0  0  0  0
    7.0581    1.0856    0.3093 F   0  0  0  0  0  0  0  0  0  0  0  0
    4.1985    0.5825    0.2426 C   0  0  0  0  0  0  0  0  0  0  0  0
    3.0356   -0.1972    0.2814 C   0  0  0  0  0  0  0  0  0  0  0  0
    0.9134   -2.2307   -1.5152 C   0  0  0  0  0  0  0  0  0  0  0  0
   -0.1779   -3.0900   -1.4922 C   0  0  0  0  0  0  0  0  0  0  0  0
   -1.2797   -2.7816   -0.7031 C   0  0  0  0  0  0  0  0  0  0  0  0
   -1.3218   -1.6002    0.0676 C   0  0  0  0  0  0  0  0  0  0  0  0
   -2.5915   -1.3598    0.9056 C   0  0  0  0  0  0  0  0  0  0  0  0
   -2.2597   -1.3868    2.4115 C   0  0  0  0  0  0  0  0  0  0  0  0
   -2.4727   -0.2628    3.1557 N   0  0  0  0  0  0  0  0  0  0  0  0
   -1.7736   -2.3750    2.9665 O   0  0  0  0  0  0  0  0  0  0  0  0
   -3.4942   -0.2217    0.3993 C   0  0  0  0  0  0  0  0  0  0  0  0
   -3.5803    0.0665   -0.9671 C   0  0  0  0  0  0  0  0  0  0  0  0
   -4.4509    1.0612   -1.4093 C   0  0  0  0  0  0  0  0  0  0  0  0
   -5.2385    1.7369   -0.4900 C   0  0  0  0  0  0  0  0  0  0  0  0
   -5.1228    1.3878    0.8419 C   0  0  0  0  0  0  0  0  0  0  0  0
   -4.2801    0.4324    1.3017 N   0  0  0  0  0  0  0  0  0  0  0  0
    0.4124    1.3397    0.3993 H   0  0  0  0  0  0  0  0  0  0  0  0
    0.2025    0.3375    1.8550 H   0  0  0  0  0  0  0  0  0  0  0  0
   -1.1889    0.9974    0.9599 H   0  0  0  0  0  0  0  0  0  0  0  0
    1.7676    0.5655   -2.7800 H   0  0  0  0  0  0  0  0  0  0  0  0
    3.8131    1.9334   -2.8486 H   0  0  0  0  0  0  0  0  0  0  0  0
    4.8489    0.5538    1.1121 H   0  0  0  0  0  0  0  0  0  0  0  0
    2.8288   -0.7974    1.1663 H   0  0  0  0  0  0  0  0  0  0  0  0
    1.7807   -2.4976   -2.1173 H   0  0  0  0  0  0  0  0  0  0  0  0
   -0.1608   -4.0077   -2.0733 H   0  0  0  0  0  0  0  0  0  0  0  0
   -2.1125   -3.4831   -0.6841 H   0  0  0  0  0  0  0  0  0  0  0  0
   -3.2380   -2.2448    0.7906 H   0  0  0  0  0  0  0  0  0  0  0  0
   -2.3803   -0.3743    4.1567 H   0  0  0  0  0  0  0  0  0  0  0  0
   -3.1994    0.3721    2.8247 H   0  0  0  0  0  0  0  0  0  0  0  0
   -2.9821   -0.4711   -1.6976 H   0  0  0  0  0  0  0  0  0  0  0  0
   -4.5151    1.2984   -2.4678 H   0  0  0  0  0  0  0  0  0  0  0  0
   -5.9289    2.5110   -0.8040 H   0  0  0  0  0  0  0  0  0  0  0  0
   -5.7247    1.8807    1.6007 H   0  0  0  0  0  0  0  0  0  0  0  0
  1  2  1  0
  2  3  2  0
  3  4  1  0
  4  5  2  0
  5  6  1  0
  6  7  2  0
  7  8  1  0
  8  9  1  0
  9 10  1  0
  9 11  1  0
  9 12  1  0
  7 13  1  0
 13 14  2  0
  3 15  1  0
 15 16  2  0
 16 17  1  0
 17 18  2  0
 18 19  1  0
 19 20  1  0
 20 21  1  0
 20 22  2  0
 19 23  1  0
 23 24  2  0
 24 25  1  0
 25 26  2  0
 26 27  1  0
 27 28  2  0
 18  2  1  0
 28 23  1  0
 14  4  1  0
  1 29  1  0
  1 30  1  0
  1 31  1  0
  5 32  1  0
  6 33  1  0
 13 34  1  0
 14 35  1  0
 15 36  1  0
 16 37  1  0
 17 38  1  0
 19 39  1  0
 21 40  1  0
 21 41  1  0
 24 42  1  0
 25 43  1  0
 26 44  1  0
 27 45  1  0
M  END
$$$$
