
     RDKit          3D

 50 52  0  0  0  0  0  0  0  0999 V2000
   -7.0229   -1.7418   -0.0926 C   0  0  0  0  0  0  0  0  0  0  0  0
   -5.7142   -1.7494   -0.6570 O   0  0  0  0  0  0  0  0  0  0  0  0
   -5.0922   -2.9586   -0.4713 C   0  0  0  0  0  3  0  0  0  0  0  0
   -3.6219   -3.0344   -0.6973 C   0  0  0  0  0  0  0  0  0  0  0  0
   -3.0112   -1.9479    0.0512 N   0  0  0  0  0  0  0  0  0  0  0  0
   -1.6494   -1.6538   -0.1095 C   0  0  0  0  0  0  0  0  0  0  0  0
   -0.7345   -2.5898   -0.5918 C   0  0  0  0  0  0  0  0  0  0  0  0
    0.6203   -2.2710   -0.6952 C   0  0  0  0  0  0  0  0  0  0  0  0
    1.0726   -1.0252   -0.2796 C   0  0  0  0  0  0  0  0  0  0  0  0
    2.4323   -0.7304   -0.4508 N   0  0  0  0  0  0  0  0  0  0  0  0
    2.8448    0.5683    0.0596 C   0  0  0  0  0  0  0  0  0  0  0  0
    4.3454    0.6931   -0.0716 C   0  0  0  0  0  0  0  0  0  0  0  0
    4.9215    1.0440   -1.3014 C   0  0  0  0  0  0  0  0  0  0  0  0
    6.3074    1.1430   -1.4317 C   0  0  0  0  0  0  0  0  0  0  0  0
    7.1311    0.8845   -0.3374 C   0  0  0  0  0  0  0  0  0  0  0  0
    6.5708    0.5237    0.8871 C   0  0  0  0  0  0  0  0  0  0  0  0
    5.1847    0.4246    1.0199 C   0  0  0  0  0  0  0  0  0  0  0  0
    0.2276   -0.1081    0.2242 N   0  0  0  0  0  0  0  0  0  0  0  0
   -1.0893   -0.4330    0.3261 C   0  0  0  0  0  0  0  0  0  0  0  0
   -1.8786    0.6122    0.9675 C   0  0  0  0  0  0  0  0  0  0  0  0
   -2.8539    0.5415    1.9446 C   0  0  0  0  0  0  0  0  0  0  0  0
   -3.3225    1.7871    2.2401 N   0  0  0  0  0  0  0  0  0  0  0  0
   -2.6669    2.6553    1.4862 N   0  0  0  0  0  0  0  0  0  0  0  0
   -1.7864    1.9622    0.7331 N   0  0  0  0  0  0  0  0  0  0  0  0
   -0.9304    2.6889   -0.1760 C   0  0  0  0  0  0  0  0  0  0  0  0
    0.2185    3.3620    0.5582 C   0  0  0  0  0  0  0  0  0  0  0  0
    1.0912    3.9939   -0.3757 O   0  0  0  0  0  0  0  0  0  0  0  0
   -7.6741   -2.4519   -0.6134 H   0  0  0  0  0  0  0  0  0  0  0  0
   -7.4403   -0.7382   -0.2164 H   0  0  0  0  0  0  0  0  0  0  0  0
   -6.9868   -1.9706    0.9780 H   0  0  0  0  0  0  0  0  0  0  0  0
   -5.7290   -3.8299   -0.4826 H   0  0  0  0  0  0  0  0  0  0  0  0
   -3.2588   -4.0022   -0.3351 H   0  0  0  0  0  0  0  0  0  0  0  0
   -3.4158   -2.9509   -1.7703 H   0  0  0  0  0  0  0  0  0  0  0  0
   -3.5868   -1.1063   -0.0269 H   0  0  0  0  0  0  0  0  0  0  0  0
   -1.0486   -3.5788   -0.9078 H   0  0  0  0  0  0  0  0  0  0  0  0
    1.3142   -2.9956   -1.1096 H   0  0  0  0  0  0  0  0  0  0  0  0
    3.0019   -1.4793   -0.0693 H   0  0  0  0  0  0  0  0  0  0  0  0
    2.5658    0.6923    1.1139 H   0  0  0  0  0  0  0  0  0  0  0  0
    2.3707    1.3775   -0.5091 H   0  0  0  0  0  0  0  0  0  0  0  0
    4.2862    1.2353   -2.1642 H   0  0  0  0  0  0  0  0  0  0  0  0
    6.7435    1.4170   -2.3889 H   0  0  0  0  0  0  0  0  0  0  0  0
    8.2104    0.9601   -0.4405 H   0  0  0  0  0  0  0  0  0  0  0  0
    7.2145    0.3175    1.7385 H   0  0  0  0  0  0  0  0  0  0  0  0
    4.7625    0.1371    1.9805 H   0  0  0  0  0  0  0  0  0  0  0  0
   -3.2356   -0.3384    2.4438 H   0  0  0  0  0  0  0  0  0  0  0  0
   -1.5456    3.4385   -0.6884 H   0  0  0  0  0  0  0  0  0  0  0  0
   -0.5675    2.0177   -0.9599 H   0  0  0  0  0  0  0  0  0  0  0  0
    0.7993    2.6372    1.1368 H   0  0  0  0  0  0  0  0  0  0  0  0
   -0.1550    4.1257    1.2489 H   0  0  0  0  0  0  0  0  0  0  0  0
    1.7810    4.4453    0.1421 H   0  0  0  0  0  0  0  0  0  0  0  0
  1  2  1  0
  2  3  1  0
  3  4  1  0
  4  5  1  0
  5  6  1  0
  6  7  2  0
  7  8  1  0
  8  9  2  0
  9 10  1  0
 10 11  1  0
 11 12  1  0
 12 13  2  0
 13 14  1  0
 14 15  2  0
 15 16  1  0
 16 17  2  0
  9 18  1  0
 18 19  2  0
 19 20  1  0
 20 21  2  0
 21 22  1  0
 22 23  2  0
 23 24  1  0
 24 25  1  0
 25 26  1  0
 26 27  1  0
 19  6  1  0
 24 20  1  0
 17 12  1  0
  1 28  1  0
  1 29  1  0
  1 30  1  0
  3 31  1  0
  4 32  1  0
  4 33  1  0
  5 34  1  0
  7 35  1  0
  8 36  1  0
 10 37  1  0
 11 38  1  0
 11 39  1  0
 13 40  1  0
 14 41  1  0
 15 42  1  0
 16 43  1  0
 17 44  1  0
 21 45  1  0
 25 46  1  0
 25 47  1  0
 26 48  1  0
 26 49  1  0
 27 50  1  0
M  RAD  1   3   2
M  END
$$$$
