
     RDKit          3D

 40 42  0  0  0  0  0  0  0  0999 V2000
   -2.3352   -1.2228    2.3642 C   0  0  0  0  0  0  0  0  0  0  0  0
   -2.0774   -0.9969    0.8828 C   0  0  0  0  0  0  0  0  0  0  0  0
   -2.1935    0.4837    0.5164 C   0  0  0  0  0  0  0  0  0  0  0  0
   -1.8822    0.7425   -0.9412 C   0  0  0  0  0  0  0  0  0  0  0  0
   -2.8673    0.4450   -1.9001 C   0  0  0  0  0  0  0  0  0  0  0  0
   -2.6379    0.6976   -3.2481 C   0  0  0  0  0  0  0  0  0  0  0  0
   -3.5913    0.4108   -4.1442 F   0  0  0  0  0  0  0  0  0  0  0  0
   -1.4428    1.2547   -3.6763 C   0  0  0  0  0  0  0  0  0  0  0  0
   -0.4555    1.5513   -2.7382 C   0  0  0  0  0  0  0  0  0  0  0  0
   -0.6467    1.2675   -1.3750 C   0  0  0  0  0  0  0  0  0  0  0  0
    0.3684    1.6567   -0.4736 N   0  0  0  0  0  0  0  0  0  0  0  0
    1.2253    0.8437    0.2016 C   0  0  0  0  0  0  0  0  0  0  0  0
    1.8505    1.2142    1.3788 C   0  0  0  0  0  0  0  0  0  0  0  0
    1.7399    2.4331    2.1205 C   0  0  0  0  0  0  0  0  0  0  0  0
    1.0429    3.4044    1.8698 O   0  0  0  0  0  0  0  0  0  0  0  0
    2.5311    2.4120    3.2153 O   0  0  0  0  0  0  0  0  0  0  0  0
    2.6393    0.1533    1.7579 N   0  0  0  0  0  0  0  0  0  0  0  0
    2.5444   -0.8819    0.8611 C   0  0  0  0  0  0  0  0  0  0  0  0
    3.1732   -2.1332    0.8648 C   0  0  0  0  0  0  0  0  0  0  0  0
    2.8968   -3.0016   -0.1939 C   0  0  0  0  0  0  0  0  0  0  0  0
    2.0284   -2.6293   -1.2152 C   0  0  0  0  0  0  0  0  0  0  0  0
    1.4096   -1.3736   -1.2022 C   0  0  0  0  0  0  0  0  0  0  0  0
    1.6623   -0.4752   -0.1424 C   0  0  0  0  0  0  0  0  0  0  0  0
   -2.2540   -2.2873    2.6049 H   0  0  0  0  0  0  0  0  0  0  0  0
   -3.3387   -0.8864    2.6436 H   0  0  0  0  0  0  0  0  0  0  0  0
   -1.6069   -0.6802    2.9755 H   0  0  0  0  0  0  0  0  0  0  0  0
   -2.7938   -1.5887    0.3004 H   0  0  0  0  0  0  0  0  0  0  0  0
   -1.0813   -1.3765    0.6339 H   0  0  0  0  0  0  0  0  0  0  0  0
   -3.2130    0.8363    0.7229 H   0  0  0  0  0  0  0  0  0  0  0  0
   -1.5481    1.0866    1.1648 H   0  0  0  0  0  0  0  0  0  0  0  0
   -3.8238    0.0242   -1.6031 H   0  0  0  0  0  0  0  0  0  0  0  0
   -1.2868    1.4578   -4.7302 H   0  0  0  0  0  0  0  0  0  0  0  0
    0.4826    1.9930   -3.0670 H   0  0  0  0  0  0  0  0  0  0  0  0
    0.1224    2.5481   -0.0364 H   0  0  0  0  0  0  0  0  0  0  0  0
    2.3629    3.2889    3.6198 H   0  0  0  0  0  0  0  0  0  0  0  0
    3.2118    0.1517    2.5913 H   0  0  0  0  0  0  0  0  0  0  0  0
    3.8544   -2.4247    1.6577 H   0  0  0  0  0  0  0  0  0  0  0  0
    3.3689   -3.9810   -0.2209 H   0  0  0  0  0  0  0  0  0  0  0  0
    1.8258   -3.3167   -2.0327 H   0  0  0  0  0  0  0  0  0  0  0  0
    0.7350   -1.1012   -2.0074 H   0  0  0  0  0  0  0  0  0  0  0  0
  1  2  1  0
  2  3  1  0
  3  4  1  0
  4  5  2  0
  5  6  1  0
  6  7  1  0
  6  8  2  0
  8  9  1  0
  9 10  2  0
 10 11  1  0
 11 12  1  0
 12 13  2  0
 13 14  1  0
 14 15  2  0
 14 16  1  0
 13 17  1  0
 17 18  1  0
 18 19  2  0
 19 20  1  0
 20 21  2  0
 21 22  1  0
 22 23  2  0
 10  4  1  0
 23 12  1  0
 23 18  1  0
  1 24  1  0
  1 25  1  0
  1 26  1  0
  2 27  1  0
  2 28  1  0
  3 29  1  0
  3 30  1  0
  5 31  1  0
  8 32  1  0
  9 33  1  0
 11 34  1  0
 16 35  1  0
 17 36  1  0
 19 37  1  0
 20 38  1  0
 21 39  1  0
 22 40  1  0
M  END
$$$$
