
     RDKit          3D

 50 52  0  0  0  0  0  0  0  0999 V2000
   -0.6026   -0.9358   -1.2568 O   0  0  0  0  0  0  0  0  0  0  0  0
   -0.6465   -1.1742   -0.0550 C   0  0  0  0  0  0  0  0  0  0  0  0
   -1.6600   -1.8292    0.6278 N   0  0  0  0  0  0  0  0  0  0  0  0
   -2.8535   -2.2995    0.1041 C   0  0  0  0  0  0  0  0  0  0  0  0
   -3.6578   -3.0450    0.8929 C   0  0  0  0  0  0  0  0  0  0  0  0
   -4.8639   -3.7507    0.5074 C   0  0  0  0  0  0  0  0  0  0  0  0
   -6.0560   -3.2605    0.1403 C   0  0  0  0  0  0  0  0  0  0  0  0
   -6.5492   -1.8438    0.0404 C   0  0  0  0  0  0  0  0  0  0  0  0
   -5.7198   -0.7960    0.7495 C   0  0  0  0  0  0  0  0  0  0  0  0
   -4.9027    0.0518    0.1956 N   0  0  0  0  0  0  0  0  0  0  0  0
   -4.7617   -0.0871   -1.1444 N   0  0  0  0  0  0  0  0  0  0  0  0
   -3.9531   -1.0302   -1.7533 C   0  0  0  0  0  0  0  0  0  0  0  0
   -3.1555   -2.0003   -1.2797 C   0  0  0  0  0  0  0  0  0  0  0  0
    0.5069   -0.7421    0.7802 C   0  0  0  0  0  0  0  0  0  0  0  0
    1.0145   -1.5372    1.8127 C   0  0  0  0  0  0  0  0  0  0  0  0
    2.1250   -1.1048    2.5416 C   0  0  0  0  0  0  0  0  0  0  0  0
    2.7306    0.1152    2.2409 C   0  0  0  0  0  0  0  0  0  0  0  0
    2.2412    0.9163    1.1952 C   0  0  0  0  0  0  0  0  0  0  0  0
    2.9165    2.2193    0.8216 C   0  0  0  0  0  0  0  0  0  0  0  0
    3.5404    2.1638   -0.5094 N   0  0  0  0  0  0  0  0  0  0  0  0
    4.7599    1.3376   -0.5372 C   0  0  0  0  0  0  0  0  0  0  0  0
    5.8738    2.2271   -0.0039 C   0  0  0  0  0  0  0  0  0  0  0  0
    5.4356    3.6407   -0.3639 C   0  0  1  0  0  0  0  0  0  0  0  0
    6.3327    4.1898   -1.3160 O   0  0  0  0  0  0  0  0  0  0  0  0
    4.0208    3.4858   -0.9348 C   0  0  0  0  0  0  0  0  0  0  0  0
    1.1343    0.4674    0.4623 C   0  0  0  0  0  0  0  0  0  0  0  0
   -1.5369   -1.9518    1.6230 H   0  0  0  0  0  0  0  0  0  0  0  0
   -3.3484   -3.2649    1.9134 H   0  0  0  0  0  0  0  0  0  0  0  0
   -4.7518   -4.8370    0.5234 H   0  0  0  0  0  0  0  0  0  0  0  0
   -6.8034   -3.9961   -0.1666 H   0  0  0  0  0  0  0  0  0  0  0  0
   -6.6818   -1.6057   -1.0158 H   0  0  0  0  0  0  0  0  0  0  0  0
   -7.5511   -1.7974    0.4842 H   0  0  0  0  0  0  0  0  0  0  0  0
   -5.8279   -0.7450    1.8506 H   0  0  0  0  0  0  0  0  0  0  0  0
   -4.7717    0.7972   -1.6674 H   0  0  0  0  0  0  0  0  0  0  0  0
   -3.9802   -0.8907   -2.8322 H   0  0  0  0  0  0  0  0  0  0  0  0
   -2.5574   -2.5618   -1.9995 H   0  0  0  0  0  0  0  0  0  0  0  0
    0.5883   -2.5120    2.0289 H   0  0  0  0  0  0  0  0  0  0  0  0
    2.5323   -1.7339    3.3347 H   0  0  0  0  0  0  0  0  0  0  0  0
    3.5958    0.4403    2.8102 H   0  0  0  0  0  0  0  0  0  0  0  0
    3.6273    2.5223    1.5993 H   0  0  0  0  0  0  0  0  0  0  0  0
    2.1261    2.9807    0.8179 H   0  0  0  0  0  0  0  0  0  0  0  0
    4.6793    0.3930    0.0081 H   0  0  0  0  0  0  0  0  0  0  0  0
    4.9746    1.0684   -1.5808 H   0  0  0  0  0  0  0  0  0  0  0  0
    6.8415    1.9562   -0.4316 H   0  0  0  0  0  0  0  0  0  0  0  0
    5.9361    2.1188    1.0851 H   0  0  0  0  0  0  0  0  0  0  0  0
    5.4459    4.2731    0.5260 H   0  0  0  0  0  0  0  0  0  0  0  0
    6.0334    5.0973   -1.5046 H   0  0  0  0  0  0  0  0  0  0  0  0
    3.3602    4.3044   -0.6307 H   0  0  0  0  0  0  0  0  0  0  0  0
    4.0490    3.5122   -2.0302 H   0  0  0  0  0  0  0  0  0  0  0  0
    0.7709    1.0542   -0.3783 H   0  0  0  0  0  0  0  0  0  0  0  0
  1  2  2  0
  2  3  1  0
  3  4  1  0
  4  5  2  3
  5  6  1  0
  6  7  2  3
  7  8  1  0
  8  9  1  0
  9 10  2  3
 10 11  1  0
 11 12  1  0
 12 13  2  3
  2 14  1  0
 14 15  2  0
 15 16  1  0
 16 17  2  0
 17 18  1  0
 18 19  1  0
 19 20  1  0
 20 21  1  0
 21 22  1  0
 22 23  1  0
 23 24  1  0
 23 25  1  0
 18 26  2  0
 13  4  1  0
 26 14  1  0
 25 20  1  0
  3 27  1  0
  5 28  1  0
  6 29  1  0
  7 30  1  0
  8 31  1  0
  8 32  1  0
  9 33  1  0
 11 34  1  0
 12 35  1  0
 13 36  1  0
 15 37  1  0
 16 38  1  0
 17 39  1  0
 19 40  1  0
 19 41  1  0
 21 42  1  0
 21 43  1  0
 22 44  1  0
 22 45  1  0
 23 46  1  1
 24 47  1  0
 25 48  1  0
 25 49  1  0
 26 50  1  0
M  END
$$$$
