
     RDKit          3D

 66 69  0  0  0  0  0  0  0  0999 V2000
    8.4292   -2.3642    2.3062 C   0  0  0  0  0  0  0  0  0  0  0  0
    7.1626   -1.7793    2.0318 O   0  0  0  0  0  0  0  0  0  0  0  0
    7.0946   -0.4120    2.0018 C   0  0  0  0  0  0  0  0  0  0  0  0
    8.1738    0.4552    2.1852 C   0  0  0  0  0  0  0  0  0  0  0  0
    7.9742    1.8377    2.1505 C   0  0  0  0  0  0  0  0  0  0  0  0
    6.7015    2.3545    1.9218 C   0  0  0  0  0  0  0  0  0  0  0  0
    6.5888    3.7194    1.9357 O   0  0  0  0  0  0  0  0  0  0  0  0
    5.6139    1.5022    1.6951 C   0  0  0  0  0  0  0  0  0  0  0  0
    4.2790    2.0834    1.4312 C   0  0  0  0  0  0  0  0  0  0  0  0
    4.0267    3.1894    1.9129 O   0  0  0  0  0  0  0  0  0  0  0  0
    3.2632    1.4276    0.5749 C   0  0  0  0  0  0  0  0  0  0  0  0
    3.6164    0.7572   -0.6004 C   0  0  0  0  0  0  0  0  0  0  0  0
    2.6218    0.1809   -1.3969 C   0  0  0  0  0  0  0  0  0  0  0  0
    1.2699    0.2743   -1.0332 C   0  0  0  0  0  0  0  0  0  0  0  0
    0.2593   -0.3575   -1.9313 C   0  0  0  0  0  0  0  0  0  0  0  0
    0.5438   -0.6019   -3.1000 O   0  0  0  0  0  0  0  0  0  0  0  0
   -0.9634   -0.6615   -1.3812 N   0  0  0  0  0  0  0  0  0  0  0  0
   -2.0801   -1.2008   -2.1639 C   0  0  2  0  0  0  0  0  0  0  0  0
   -2.7528   -0.0537   -2.9353 C   0  0  0  0  0  0  0  0  0  0  0  0
   -4.1335   -0.2970   -3.5426 C   0  0  0  0  0  0  0  0  0  0  0  0
   -4.4393   -1.7224   -3.9858 C   0  0  0  0  0  0  0  0  0  0  0  0
   -4.9011   -2.5581   -2.8747 N   0  0  0  0  0  0  0  0  0  0  0  0
   -3.7997   -3.0880   -2.0596 C   0  0  0  0  0  0  0  0  0  0  0  0
   -3.0155   -2.0332   -1.2507 C   0  0  0  0  0  0  0  0  0  0  0  0
   -3.9330   -1.2169   -0.4500 N   0  0  0  0  0  0  0  0  0  0  0  0
   -3.5254   -0.4268    0.5979 C   0  0  0  0  0  0  0  0  0  0  0  0
   -2.3581   -0.3663    0.9730 O   0  0  0  0  0  0  0  0  0  0  0  0
   -4.5765    0.3739    1.2814 C   0  0  0  0  0  0  0  0  0  0  0  0
   -5.7263    0.8215    0.6158 C   0  0  0  0  0  0  0  0  0  0  0  0
   -6.6807    1.5793    1.3006 C   0  0  0  0  0  0  0  0  0  0  0  0
   -6.4896    1.8983    2.6455 C   0  0  0  0  0  0  0  0  0  0  0  0
   -5.3388    1.4625    3.2954 C   0  0  0  0  0  0  0  0  0  0  0  0
   -5.1104    1.7581    4.6065 O   0  0  0  0  0  0  0  0  0  0  0  0
   -4.3809    0.7091    2.6259 C   0  0  0  0  0  0  0  0  0  0  0  0
    0.9203    0.9774    0.1271 C   0  0  0  0  0  0  0  0  0  0  0  0
    1.9142    1.5547    0.9251 C   0  0  0  0  0  0  0  0  0  0  0  0
    5.8194    0.1232    1.7646 C   0  0  0  0  0  0  0  0  0  0  0  0
    4.7836   -0.7208    1.6291 F   0  0  0  0  0  0  0  0  0  0  0  0
    9.1550   -2.1162    1.5247 H   0  0  0  0  0  0  0  0  0  0  0  0
    8.3020   -3.4510    2.3095 H   0  0  0  0  0  0  0  0  0  0  0  0
    8.7951   -2.0685    3.2950 H   0  0  0  0  0  0  0  0  0  0  0  0
    9.1797    0.0918    2.3691 H   0  0  0  0  0  0  0  0  0  0  0  0
    8.8101    2.5147    2.3118 H   0  0  0  0  0  0  0  0  0  0  0  0
    5.6296    3.9416    1.9726 H   0  0  0  0  0  0  0  0  0  0  0  0
    4.6525    0.6804   -0.9183 H   0  0  0  0  0  0  0  0  0  0  0  0
    2.9038   -0.3434   -2.3087 H   0  0  0  0  0  0  0  0  0  0  0  0
   -1.1641   -0.4566   -0.4022 H   0  0  0  0  0  0  0  0  0  0  0  0
   -1.6292   -1.8822   -2.8975 H   0  0  0  0  0  0  0  0  0  0  0  0
   -2.8229    0.8360   -2.2941 H   0  0  0  0  0  0  0  0  0  0  0  0
   -2.0749    0.2437   -3.7475 H   0  0  0  0  0  0  0  0  0  0  0  0
   -4.2359    0.3673   -4.4109 H   0  0  0  0  0  0  0  0  0  0  0  0
   -4.9049    0.0413   -2.8385 H   0  0  0  0  0  0  0  0  0  0  0  0
   -5.2680   -1.6683   -4.7027 H   0  0  0  0  0  0  0  0  0  0  0  0
   -3.5995   -2.1760   -4.5249 H   0  0  0  0  0  0  0  0  0  0  0  0
   -5.4019   -3.3571   -3.2703 H   0  0  0  0  0  0  0  0  0  0  0  0
   -3.1201   -3.6891   -2.6761 H   0  0  0  0  0  0  0  0  0  0  0  0
   -4.2530   -3.7842   -1.3423 H   0  0  0  0  0  0  0  0  0  0  0  0
   -2.3900   -2.5844   -0.5346 H   0  0  0  0  0  0  0  0  0  0  0  0
   -4.9041   -1.2544   -0.7363 H   0  0  0  0  0  0  0  0  0  0  0  0
   -5.8846    0.6152   -0.4386 H   0  0  0  0  0  0  0  0  0  0  0  0
   -7.5705    1.9280    0.7815 H   0  0  0  0  0  0  0  0  0  0  0  0
   -7.2391    2.4884    3.1639 H   0  0  0  0  0  0  0  0  0  0  0  0
   -5.8418    2.3038    4.9391 H   0  0  0  0  0  0  0  0  0  0  0  0
   -3.4875    0.3821    3.1525 H   0  0  0  0  0  0  0  0  0  0  0  0
   -0.1169    1.1108    0.4219 H   0  0  0  0  0  0  0  0  0  0  0  0
    1.6297    2.1068    1.8192 H   0  0  0  0  0  0  0  0  0  0  0  0
  1  2  1  0
  2  3  1  0
  3  4  2  0
  4  5  1  0
  5  6  2  0
  6  7  1  0
  6  8  1  0
  8  9  1  0
  9 10  2  0
  9 11  1  0
 11 12  2  0
 12 13  1  0
 13 14  2  0
 14 15  1  0
 15 16  2  0
 15 17  1  0
 17 18  1  0
 18 19  1  0
 19 20  1  0
 20 21  1  0
 21 22  1  0
 22 23  1  0
 23 24  1  0
 24 25  1  0
 25 26  1  0
 26 27  2  0
 26 28  1  0
 28 29  2  0
 29 30  1  0
 30 31  2  0
 31 32  1  0
 32 33  1  0
 32 34  2  0
 14 35  1  0
 35 36  2  0
  8 37  2  0
 37 38  1  0
 37  3  1  0
 36 11  1  0
 24 18  1  0
 34 28  1  0
  1 39  1  0
  1 40  1  0
  1 41  1  0
  4 42  1  0
  5 43  1  0
  7 44  1  0
 12 45  1  0
 13 46  1  0
 17 47  1  0
 18 48  1  6
 19 49  1  0
 19 50  1  0
 20 51  1  0
 20 52  1  0
 21 53  1  0
 21 54  1  0
 22 55  1  0
 23 56  1  0
 23 57  1  0
 24 58  1  0
 25 59  1  0
 29 60  1  0
 30 61  1  0
 31 62  1  0
 33 63  1  0
 34 64  1  0
 35 65  1  0
 36 66  1  0
M  END
$$$$
