
     RDKit          3D

 51 53  0  0  0  0  0  0  0  0999 V2000
   -5.4862    3.0225   -1.2489 C   0  0  0  0  0  0  0  0  0  0  0  0
   -5.6381    1.5330   -1.5025 C   0  0  0  0  0  0  0  0  0  0  0  0
   -4.5068    0.8205   -1.0041 O   0  0  0  0  0  0  0  0  0  0  0  0
   -4.5417    0.3204    0.2687 C   0  0  0  0  0  0  0  0  0  0  0  0
   -5.5032    0.6194    1.2352 C   0  0  0  0  0  0  0  0  0  0  0  0
   -5.4293    0.0338    2.5019 C   0  0  0  0  0  0  0  0  0  0  0  0
   -4.3884   -0.8382    2.8098 C   0  0  0  0  0  0  0  0  0  0  0  0
   -4.4087   -1.3899    4.0629 O   0  0  0  0  0  0  0  0  0  0  0  0
   -3.3884   -1.1158    1.8707 C   0  0  0  0  0  0  0  0  0  0  0  0
   -2.2802   -2.0251    2.2377 C   0  0  0  0  0  0  0  0  0  0  0  0
   -2.5027   -2.8918    3.0847 O   0  0  0  0  0  0  0  0  0  0  0  0
   -0.9132   -1.9074    1.6768 C   0  0  0  0  0  0  0  0  0  0  0  0
   -0.3198   -0.6608    1.4421 C   0  0  0  0  0  0  0  0  0  0  0  0
    0.9817   -0.5896    0.9329 C   0  0  0  0  0  0  0  0  0  0  0  0
    1.6969   -1.7649    0.6658 C   0  0  0  0  0  0  0  0  0  0  0  0
    3.0837   -1.7376    0.1269 C   0  0  0  0  0  0  0  0  0  0  0  0
    3.8762   -2.6223    0.4275 O   0  0  0  0  0  0  0  0  0  0  0  0
    3.3884   -0.6945   -0.7231 N   0  0  0  0  0  0  0  0  0  0  0  0
    4.7352   -0.5042   -1.2553 C   0  0  0  0  0  0  0  0  0  0  0  0
    4.7111    0.3002   -2.5588 C   0  0  0  0  0  0  0  0  0  0  0  0
    4.4442    1.7849   -2.3168 C   0  0  0  0  0  0  0  0  0  0  0  0
    5.3745    2.3659   -1.3497 N   0  0  0  0  0  0  0  0  0  0  0  0
    5.3246    1.6540   -0.0707 C   0  0  0  0  0  0  0  0  0  0  0  0
    5.6518    0.1713   -0.2291 C   0  0  0  0  0  0  0  0  0  0  0  0
    1.1169   -3.0086    0.9447 C   0  0  0  0  0  0  0  0  0  0  0  0
   -0.1838   -3.0801    1.4498 C   0  0  0  0  0  0  0  0  0  0  0  0
   -3.4913   -0.5500    0.5983 C   0  0  0  0  0  0  0  0  0  0  0  0
   -2.5888   -0.8535   -0.3493 F   0  0  0  0  0  0  0  0  0  0  0  0
   -4.5511    3.3912   -1.6836 H   0  0  0  0  0  0  0  0  0  0  0  0
   -6.3202    3.5766   -1.6888 H   0  0  0  0  0  0  0  0  0  0  0  0
   -5.4459    3.2444   -0.1784 H   0  0  0  0  0  0  0  0  0  0  0  0
   -5.6561    1.3668   -2.5857 H   0  0  0  0  0  0  0  0  0  0  0  0
   -6.5870    1.1386   -1.1227 H   0  0  0  0  0  0  0  0  0  0  0  0
   -6.3248    1.3009    1.0411 H   0  0  0  0  0  0  0  0  0  0  0  0
   -6.1886    0.2524    3.2497 H   0  0  0  0  0  0  0  0  0  0  0  0
   -3.7594   -2.1307    4.0776 H   0  0  0  0  0  0  0  0  0  0  0  0
   -0.8485    0.2628    1.6636 H   0  0  0  0  0  0  0  0  0  0  0  0
    1.4321    0.3877    0.7833 H   0  0  0  0  0  0  0  0  0  0  0  0
    2.6758   -0.0182   -0.9590 H   0  0  0  0  0  0  0  0  0  0  0  0
    5.1345   -1.5030   -1.4714 H   0  0  0  0  0  0  0  0  0  0  0  0
    5.6824    0.1930   -3.0593 H   0  0  0  0  0  0  0  0  0  0  0  0
    3.9547   -0.1019   -3.2433 H   0  0  0  0  0  0  0  0  0  0  0  0
    4.5377    2.3276   -3.2642 H   0  0  0  0  0  0  0  0  0  0  0  0
    3.4139    1.9402   -1.9753 H   0  0  0  0  0  0  0  0  0  0  0  0
    6.3238    2.3145   -1.7221 H   0  0  0  0  0  0  0  0  0  0  0  0
    4.3370    1.7843    0.3881 H   0  0  0  0  0  0  0  0  0  0  0  0
    6.0465    2.1130    0.6139 H   0  0  0  0  0  0  0  0  0  0  0  0
    6.6936    0.0693   -0.5602 H   0  0  0  0  0  0  0  0  0  0  0  0
    5.5805   -0.3247    0.7459 H   0  0  0  0  0  0  0  0  0  0  0  0
    1.6781   -3.9248    0.7689 H   0  0  0  0  0  0  0  0  0  0  0  0
   -0.6235   -4.0520    1.6664 H   0  0  0  0  0  0  0  0  0  0  0  0
  1  2  1  0
  2  3  1  0
  3  4  1  0
  4  5  2  0
  5  6  1  0
  6  7  2  0
  7  8  1  0
  7  9  1  0
  9 10  1  0
 10 11  2  0
 10 12  1  0
 12 13  2  0
 13 14  1  0
 14 15  2  0
 15 16  1  0
 16 17  2  0
 16 18  1  0
 18 19  1  0
 19 20  1  0
 20 21  1  0
 21 22  1  0
 22 23  1  0
 23 24  1  0
 15 25  1  0
 25 26  2  0
  9 27  2  0
 27 28  1  0
 27  4  1  0
 26 12  1  0
 24 19  1  0
  1 29  1  0
  1 30  1  0
  1 31  1  0
  2 32  1  0
  2 33  1  0
  5 34  1  0
  6 35  1  0
  8 36  1  0
 13 37  1  0
 14 38  1  0
 18 39  1  0
 19 40  1  0
 20 41  1  0
 20 42  1  0
 21 43  1  0
 21 44  1  0
 22 45  1  0
 23 46  1  0
 23 47  1  0
 24 48  1  0
 24 49  1  0
 25 50  1  0
 26 51  1  0
M  END
$$$$
