
     RDKit          3D

 54 57  0  0  0  0  0  0  0  0999 V2000
    4.1858    3.4673   -1.3707 C   0  0  0  0  0  0  0  0  0  0  0  0
    5.2714    3.0994   -0.4976 N   0  0  0  0  0  0  0  0  0  0  0  0
    6.4006    3.8412   -0.2917 C   0  0  0  0  0  0  0  0  0  0  0  0
    7.2186    3.2521    0.5468 N   0  0  0  0  0  0  0  0  0  0  0  0
    6.5868    2.0877    0.9002 C   0  0  0  0  0  0  0  0  0  0  0  0
    5.3622    1.9614    0.2711 C   0  0  0  0  0  0  0  0  0  0  0  0
    4.3931    0.9037    0.3682 C   0  0  0  0  0  0  0  0  0  0  0  0
    4.6489   -0.1432    1.0766 N   0  0  0  0  0  0  0  0  0  0  0  0
    3.6971   -1.1625    1.1497 C   0  0  0  0  0  0  0  0  0  0  0  0
    4.0396   -2.3424    1.7905 C   0  0  0  0  0  0  0  0  0  0  0  0
    3.1047   -3.3701    1.8539 C   0  0  0  0  0  0  0  0  0  0  0  0
    1.8458   -3.1886    1.2760 C   0  0  0  0  0  0  0  0  0  0  0  0
    0.9105   -4.3294    1.3276 C   0  0  0  0  0  0  0  0  0  0  0  0
    0.2782   -4.6769    0.1686 N   0  0  0  0  0  0  0  0  0  0  0  0
    0.7536   -4.9655    2.3608 O   0  0  0  0  0  0  0  0  0  0  0  0
    1.5511   -1.9551    0.6874 C   0  0  0  0  0  0  0  0  0  0  0  0
    0.2373   -1.5720    0.1369 C   0  0  0  0  0  0  0  0  0  0  0  0
    0.1431   -1.0151   -1.1529 C   0  0  0  0  0  0  0  0  0  0  0  0
   -1.0916   -0.6424   -1.6934 C   0  0  0  0  0  0  0  0  0  0  0  0
   -2.2576   -0.7994   -0.9387 C   0  0  0  0  0  0  0  0  0  0  0  0
   -3.5521   -0.4585   -1.5571 C   0  0  0  0  0  0  0  0  0  0  0  0
   -3.7703   -0.9236   -2.6749 O   0  0  0  0  0  0  0  0  0  0  0  0
   -4.4520    0.3683   -0.8848 N   0  0  0  0  0  0  0  0  0  0  0  0
   -4.0398    1.3653    0.1119 C   0  0  0  0  0  0  0  0  0  0  0  0
   -5.2011    1.7939    1.0262 C   0  0  0  0  0  0  0  0  0  0  0  0
   -6.3949    2.2258    0.2789 N   0  0  0  0  0  0  0  0  0  0  0  0
   -6.8161    1.1307   -0.6147 C   0  0  0  0  0  0  0  0  0  0  0  0
   -5.7069    0.6727   -1.5762 C   0  0  0  0  0  0  0  0  0  0  0  0
   -2.1812   -1.3571    0.3337 C   0  0  0  0  0  0  0  0  0  0  0  0
   -3.2858   -1.5501    1.0692 F   0  0  0  0  0  0  0  0  0  0  0  0
   -0.9494   -1.7252    0.8757 C   0  0  0  0  0  0  0  0  0  0  0  0
    2.4791   -0.9577    0.6013 N   0  0  0  0  0  0  0  0  0  0  0  0
    3.3022    3.6599   -0.7593 H   0  0  0  0  0  0  0  0  0  0  0  0
    4.4551    4.3658   -1.9312 H   0  0  0  0  0  0  0  0  0  0  0  0
    4.0047    2.6452   -2.0685 H   0  0  0  0  0  0  0  0  0  0  0  0
    6.5777    4.7947   -0.7714 H   0  0  0  0  0  0  0  0  0  0  0  0
    7.0387    1.3945    1.5985 H   0  0  0  0  0  0  0  0  0  0  0  0
    3.4519    1.0347   -0.1897 H   0  0  0  0  0  0  0  0  0  0  0  0
    5.0261   -2.4584    2.2269 H   0  0  0  0  0  0  0  0  0  0  0  0
    3.3584   -4.3079    2.3433 H   0  0  0  0  0  0  0  0  0  0  0  0
   -0.3126   -5.4995    0.1890 H   0  0  0  0  0  0  0  0  0  0  0  0
    0.4682   -4.2529   -0.7291 H   0  0  0  0  0  0  0  0  0  0  0  0
    1.0443   -0.8749   -1.7494 H   0  0  0  0  0  0  0  0  0  0  0  0
   -1.1450   -0.2375   -2.7019 H   0  0  0  0  0  0  0  0  0  0  0  0
   -3.6626    2.2312   -0.4456 H   0  0  0  0  0  0  0  0  0  0  0  0
   -3.2146    1.0011    0.7246 H   0  0  0  0  0  0  0  0  0  0  0  0
   -4.8717    2.6158    1.6706 H   0  0  0  0  0  0  0  0  0  0  0  0
   -5.4747    0.9638    1.6885 H   0  0  0  0  0  0  0  0  0  0  0  0
   -6.1459    3.0307   -0.2960 H   0  0  0  0  0  0  0  0  0  0  0  0
   -7.1500    0.2824   -0.0057 H   0  0  0  0  0  0  0  0  0  0  0  0
   -7.6834    1.4615   -1.1948 H   0  0  0  0  0  0  0  0  0  0  0  0
   -6.0487   -0.2088   -2.1309 H   0  0  0  0  0  0  0  0  0  0  0  0
   -5.4917    1.4608   -2.3090 H   0  0  0  0  0  0  0  0  0  0  0  0
   -0.9349   -2.1368    1.8828 H   0  0  0  0  0  0  0  0  0  0  0  0
  1  2  1  0
  2  3  1  0
  3  4  2  0
  4  5  1  0
  5  6  2  0
  6  7  1  0
  7  8  2  3
  8  9  1  0
  9 10  2  0
 10 11  1  0
 11 12  2  0
 12 13  1  0
 13 14  1  0
 13 15  2  0
 12 16  1  0
 16 17  1  0
 17 18  2  0
 18 19  1  0
 19 20  2  0
 20 21  1  0
 21 22  2  0
 21 23  1  0
 23 24  1  0
 24 25  1  0
 25 26  1  0
 26 27  1  0
 27 28  1  0
 20 29  1  0
 29 30  1  0
 29 31  2  0
 16 32  2  0
  6  2  1  0
 32  9  1  0
 31 17  1  0
 28 23  1  0
  1 33  1  0
  1 34  1  0
  1 35  1  0
  3 36  1  0
  5 37  1  0
  7 38  1  0
 10 39  1  0
 11 40  1  0
 14 41  1  0
 14 42  1  0
 18 43  1  0
 19 44  1  0
 24 45  1  0
 24 46  1  0
 25 47  1  0
 25 48  1  0
 26 49  1  0
 27 50  1  0
 27 51  1  0
 28 52  1  0
 28 53  1  0
 31 54  1  0
M  END
$$$$
