
     RDKit          3D

 80 87  0  0  0  0  0  0  0  0999 V2000
   -5.1376    3.5120    1.3850 O   0  0  0  0  0  0  0  0  0  0  0  0
   -5.7849    2.4608    1.3302 C   0  0  0  0  0  0  0  0  0  0  0  0
   -5.1549    1.2987    0.6068 C   0  0  0  0  0  0  0  0  0  0  0  0
   -4.0590    1.5497   -0.2144 C   0  0  0  0  0  0  0  0  0  0  0  0
   -3.4735    0.4916   -0.9133 C   0  0  0  0  0  0  0  0  0  0  0  0
   -3.9682   -0.8106   -0.7746 C   0  0  0  0  0  0  0  0  0  0  0  0
   -3.4173   -1.9680   -1.4994 C   0  0  0  0  0  0  0  0  0  0  0  0
   -4.3680   -2.7723   -2.0467 N   0  0  0  0  0  0  0  0  0  0  0  0
   -3.9411   -3.8160   -2.7873 C   0  0  0  0  0  0  0  0  0  0  0  0
   -4.8700   -4.6605   -3.3763 C   0  0  0  0  0  0  0  0  0  0  0  0
   -4.4546   -5.7363   -4.1516 C   0  0  0  0  0  0  0  0  0  0  0  0
   -3.0973   -5.9243   -4.3088 C   0  0  0  0  0  0  0  0  0  0  0  0
   -2.1647   -5.1254   -3.7496 N   0  0  0  0  0  0  0  0  0  0  0  0
   -2.5721   -4.0936   -3.0017 C   0  0  0  0  0  0  0  0  0  0  0  0
   -1.6488   -3.3106   -2.4425 N   0  0  0  0  0  0  0  0  0  0  0  0
   -2.0567   -2.2586   -1.6782 C   0  0  0  0  0  0  0  0  0  0  0  0
   -0.9480   -1.5124   -1.0618 C   0  0  0  0  0  0  0  0  0  0  0  0
    0.0444   -0.9260   -1.8617 C   0  0  0  0  0  0  0  0  0  0  0  0
    1.0928   -0.1967   -1.2922 C   0  0  0  0  0  0  0  0  0  0  0  0
    1.2037   -0.0683    0.0982 C   0  0  0  0  0  0  0  0  0  0  0  0
    2.3113    0.7486    0.7386 C   0  0  0  0  0  0  0  0  0  0  0  0
    3.6091    0.6789    0.0360 N   0  0  0  0  0  0  0  0  0  0  0  0
    4.5135    1.7139    0.5523 C   0  0  0  0  0  0  0  0  0  0  0  0
    5.7527    1.7900   -0.3302 C   0  0  0  0  0  0  0  0  0  0  0  0
    6.4924    0.4510   -0.4327 C   0  0  0  0  0  0  0  0  0  0  0  0
    7.5447    0.3305    0.5728 N   0  0  0  0  0  0  0  0  0  0  0  0
    7.5090   -0.2693    1.7995 C   0  0  0  0  0  0  0  0  0  0  0  0
    6.4646   -0.8648    2.3292 O   0  0  0  0  0  0  0  0  0  0  0  0
    8.6421   -0.2156    2.4449 N   0  0  0  0  0  0  0  0  0  0  0  0
    9.4731    0.4686    1.6068 C   0  0  0  0  0  0  0  0  0  0  0  0
   10.7634    0.7675    1.8732 N   0  0  0  0  0  0  0  0  0  0  0  0
   11.3877    1.4632    0.9003 C   0  0  0  0  0  0  0  0  0  0  0  0
   10.8151    1.8724   -0.2984 C   0  0  0  0  0  0  0  0  0  0  0  0
    9.4843    1.5590   -0.5666 C   0  0  0  0  0  0  0  0  0  0  0  0
    8.8244    0.8353    0.4297 C   0  0  0  0  0  0  0  0  0  0  0  0
    5.5406   -0.7474   -0.5879 C   0  0  0  0  0  0  0  0  0  0  0  0
    4.2321   -0.6441    0.2004 C   0  0  0  0  0  0  0  0  0  0  0  0
    0.2195   -0.6558    0.9024 C   0  0  0  0  0  0  0  0  0  0  0  0
   -0.8368   -1.3744    0.3313 C   0  0  0  0  0  0  0  0  0  0  0  0
   -5.0744   -0.9504    0.0664 C   0  0  0  0  0  0  0  0  0  0  0  0
   -5.6704    0.0566    0.7569 N   0  0  0  0  0  0  0  0  0  0  0  0
   -7.0632    2.3772    1.8918 N   0  0  0  0  0  0  0  0  0  0  0  0
   -7.7074    3.6015    2.3692 C   0  0  0  0  0  0  0  0  0  0  0  0
   -9.1437    3.6832    1.8387 C   0  0  0  0  0  0  0  0  0  0  0  0
   -9.9697    2.5644    2.1938 O   0  0  0  0  0  0  0  0  0  0  0  0
   -9.2336    1.4268    2.6576 C   0  0  0  0  0  0  0  0  0  0  0  0
   -7.9324    1.1927    1.8794 C   0  0  0  0  0  0  0  0  0  0  0  0
   -3.6693    2.5576   -0.3272 H   0  0  0  0  0  0  0  0  0  0  0  0
   -2.6392    0.7081   -1.5780 H   0  0  0  0  0  0  0  0  0  0  0  0
   -5.9306   -4.4725   -3.2296 H   0  0  0  0  0  0  0  0  0  0  0  0
   -5.1700   -6.4050   -4.6184 H   0  0  0  0  0  0  0  0  0  0  0  0
   -2.7072   -6.7453   -4.9042 H   0  0  0  0  0  0  0  0  0  0  0  0
    0.0029   -1.0335   -2.9441 H   0  0  0  0  0  0  0  0  0  0  0  0
    1.8358    0.2596   -1.9420 H   0  0  0  0  0  0  0  0  0  0  0  0
    2.4368    0.4556    1.7902 H   0  0  0  0  0  0  0  0  0  0  0  0
    1.9492    1.7862    0.7361 H   0  0  0  0  0  0  0  0  0  0  0  0
    4.7890    1.5282    1.5984 H   0  0  0  0  0  0  0  0  0  0  0  0
    4.0213    2.6937    0.5160 H   0  0  0  0  0  0  0  0  0  0  0  0
    6.4133    2.5858    0.0352 H   0  0  0  0  0  0  0  0  0  0  0  0
    5.4400    2.0910   -1.3400 H   0  0  0  0  0  0  0  0  0  0  0  0
    7.0547    0.4760   -1.3782 H   0  0  0  0  0  0  0  0  0  0  0  0
    6.8384   -1.1912    3.1701 H   0  0  0  0  0  0  0  0  0  0  0  0
   12.4260    1.7038    1.1185 H   0  0  0  0  0  0  0  0  0  0  0  0
   11.4046    2.4319   -1.0189 H   0  0  0  0  0  0  0  0  0  0  0  0
    9.0034    1.8636   -1.4884 H   0  0  0  0  0  0  0  0  0  0  0  0
    5.2681   -0.8125   -1.6509 H   0  0  0  0  0  0  0  0  0  0  0  0
    6.0484   -1.6894   -0.3505 H   0  0  0  0  0  0  0  0  0  0  0  0
    3.5677   -1.4303   -0.1782 H   0  0  0  0  0  0  0  0  0  0  0  0
    4.3848   -0.8670    1.2601 H   0  0  0  0  0  0  0  0  0  0  0  0
    0.2684   -0.5610    1.9855 H   0  0  0  0  0  0  0  0  0  0  0  0
   -1.5714   -1.8286    0.9921 H   0  0  0  0  0  0  0  0  0  0  0  0
   -5.5376   -1.9252    0.2145 H   0  0  0  0  0  0  0  0  0  0  0  0
   -7.7065    3.5568    3.4642 H   0  0  0  0  0  0  0  0  0  0  0  0
   -7.1513    4.4930    2.0681 H   0  0  0  0  0  0  0  0  0  0  0  0
   -9.1341    3.7397    0.7463 H   0  0  0  0  0  0  0  0  0  0  0  0
   -9.6355    4.5866    2.2093 H   0  0  0  0  0  0  0  0  0  0  0  0
   -9.8864    0.5526    2.5742 H   0  0  0  0  0  0  0  0  0  0  0  0
   -9.0220    1.5753    3.7225 H   0  0  0  0  0  0  0  0  0  0  0  0
   -7.4012    0.3499    2.3294 H   0  0  0  0  0  0  0  0  0  0  0  0
   -8.1625    0.9735    0.8298 H   0  0  0  0  0  0  0  0  0  0  0  0
  1  2  2  0
  2  3  1  0
  3  4  2  0
  4  5  1  0
  5  6  2  0
  6  7  1  0
  7  8  2  0
  8  9  1  0
  9 10  2  0
 10 11  1  0
 11 12  2  0
 12 13  1  0
 13 14  2  0
 14 15  1  0
 15 16  2  0
 16 17  1  0
 17 18  2  0
 18 19  1  0
 19 20  2  0
 20 21  1  0
 21 22  1  0
 22 23  1  0
 23 24  1  0
 24 25  1  0
 25 26  1  0
 26 27  1  0
 27 28  1  0
 27 29  2  0
 29 30  1  0
 30 31  2  0
 31 32  1  0
 32 33  2  0
 33 34  1  0
 34 35  2  0
 25 36  1  0
 36 37  1  0
 20 38  1  0
 38 39  2  0
  6 40  1  0
 40 41  2  0
  2 42  1  0
 42 43  1  0
 43 44  1  0
 44 45  1  0
 45 46  1  0
 46 47  1  0
 41  3  1  0
 47 42  1  0
 16  7  1  0
 39 17  1  0
 14  9  1  0
 37 22  1  0
 35 26  1  0
 35 30  1  0
  4 48  1  0
  5 49  1  0
 10 50  1  0
 11 51  1  0
 12 52  1  0
 18 53  1  0
 19 54  1  0
 21 55  1  0
 21 56  1  0
 23 57  1  0
 23 58  1  0
 24 59  1  0
 24 60  1  0
 25 61  1  0
 28 62  1  0
 32 63  1  0
 33 64  1  0
 34 65  1  0
 36 66  1  0
 36 67  1  0
 37 68  1  0
 37 69  1  0
 38 70  1  0
 39 71  1  0
 40 72  1  0
 43 73  1  0
 43 74  1  0
 44 75  1  0
 44 76  1  0
 46 77  1  0
 46 78  1  0
 47 79  1  0
 47 80  1  0
M  END
$$$$
