
     RDKit          3D

 68 74  0  0  0  0  0  0  0  0999 V2000
   -4.0517    0.2514   -4.4838 C   0  0  0  0  0  0  0  0  0  0  0  0
   -4.2228    0.6474   -3.0708 C   0  0  0  0  0  0  0  0  0  0  0  0
   -4.6705   -0.0673   -2.0577 N   0  0  0  0  0  0  0  0  0  0  0  0
   -4.6042    0.8082   -0.9930 C   0  0  0  0  0  0  0  0  0  0  0  0
   -4.9950    0.5037    0.3641 C   0  0  0  0  0  0  0  0  0  0  0  0
   -6.2193    0.9818    0.7239 N   0  0  0  0  0  0  0  0  0  0  0  0
   -6.6006    0.7784    1.9968 C   0  0  0  0  0  0  0  0  0  0  0  0
   -7.8444    1.2345    2.4114 C   0  0  0  0  0  0  0  0  0  0  0  0
   -8.2585    1.0559    3.7268 C   0  0  0  0  0  0  0  0  0  0  0  0
   -9.4687    1.5038    4.1599 O   0  0  0  0  0  0  0  0  0  0  0  0
   -7.4392    0.4177    4.6442 C   0  0  0  0  0  0  0  0  0  0  0  0
   -6.1920   -0.0500    4.2328 C   0  0  0  0  0  0  0  0  0  0  0  0
   -5.7567    0.1198    2.9244 C   0  0  0  0  0  0  0  0  0  0  0  0
   -4.5423   -0.3337    2.5650 N   0  0  0  0  0  0  0  0  0  0  0  0
   -4.1559   -0.1550    1.2684 C   0  0  0  0  0  0  0  0  0  0  0  0
   -2.7955   -0.6376    0.9724 C   0  0  0  0  0  0  0  0  0  0  0  0
   -2.5257   -1.5175   -0.0873 C   0  0  0  0  0  0  0  0  0  0  0  0
   -1.2220   -1.9476   -0.3566 C   0  0  0  0  0  0  0  0  0  0  0  0
   -0.1512   -1.5183    0.4366 C   0  0  0  0  0  0  0  0  0  0  0  0
    1.2615   -1.9773    0.1430 C   0  0  0  0  0  0  0  0  0  0  0  0
    1.7360   -1.5809   -1.1961 N   0  0  0  0  0  0  0  0  0  0  0  0
    1.8566   -0.1253   -1.3661 C   0  0  0  0  0  0  0  0  0  0  0  0
    3.0260    0.4936   -0.5998 C   0  0  0  0  0  0  0  0  0  0  0  0
    4.3382   -0.2177   -0.9551 C   0  0  0  0  0  0  0  0  0  0  0  0
    5.4803    0.3358   -0.2386 N   0  0  0  0  0  0  0  0  0  0  0  0
    5.6791    0.3288    1.1143 C   0  0  0  0  0  0  0  0  0  0  0  0
    4.8659   -0.2166    1.9951 O   0  0  0  0  0  0  0  0  0  0  0  0
    6.7731    0.9371    1.4802 N   0  0  0  0  0  0  0  0  0  0  0  0
    7.3335    1.3678    0.3024 C   0  0  0  0  0  0  0  0  0  0  0  0
    8.5201    2.0880    0.0976 C   0  0  0  0  0  0  0  0  0  0  0  0
    8.8922    2.4234   -1.2098 C   0  0  0  0  0  0  0  0  0  0  0  0
    8.1000    2.0459   -2.2942 C   0  0  0  0  0  0  0  0  0  0  0  0
    6.9112    1.3268   -2.1126 C   0  0  0  0  0  0  0  0  0  0  0  0
    6.5516    1.0033   -0.7964 C   0  0  0  0  0  0  0  0  0  0  0  0
    4.2151   -1.7379   -0.7954 C   0  0  0  0  0  0  0  0  0  0  0  0
    2.9904   -2.2596   -1.5487 C   0  0  0  0  0  0  0  0  0  0  0  0
   -0.4111   -0.6610    1.5117 C   0  0  0  0  0  0  0  0  0  0  0  0
   -1.7152   -0.2314    1.7753 C   0  0  0  0  0  0  0  0  0  0  0  0
   -4.1258    2.0263   -1.4151 C   0  0  0  0  0  0  0  0  0  0  0  0
   -3.8653    1.9322   -2.7502 O   0  0  0  0  0  0  0  0  0  0  0  0
   -4.5419    0.9699   -5.1477 H   0  0  0  0  0  0  0  0  0  0  0  0
   -4.4914   -0.7348   -4.6640 H   0  0  0  0  0  0  0  0  0  0  0  0
   -2.9887    0.2072   -4.7423 H   0  0  0  0  0  0  0  0  0  0  0  0
   -8.4802    1.7351    1.6873 H   0  0  0  0  0  0  0  0  0  0  0  0
   -9.9518    1.8891    3.4091 H   0  0  0  0  0  0  0  0  0  0  0  0
   -7.7654    0.2826    5.6718 H   0  0  0  0  0  0  0  0  0  0  0  0
   -5.5437   -0.5528    4.9472 H   0  0  0  0  0  0  0  0  0  0  0  0
   -3.3315   -1.8848   -0.7213 H   0  0  0  0  0  0  0  0  0  0  0  0
   -1.0435   -2.6163   -1.1970 H   0  0  0  0  0  0  0  0  0  0  0  0
    1.9383   -1.6258    0.9309 H   0  0  0  0  0  0  0  0  0  0  0  0
    1.2527   -3.0730    0.2219 H   0  0  0  0  0  0  0  0  0  0  0  0
    0.9249    0.3845   -1.0961 H   0  0  0  0  0  0  0  0  0  0  0  0
    1.9878    0.0827   -2.4359 H   0  0  0  0  0  0  0  0  0  0  0  0
    2.8289    0.4497    0.4780 H   0  0  0  0  0  0  0  0  0  0  0  0
    3.1037    1.5586   -0.8520 H   0  0  0  0  0  0  0  0  0  0  0  0
    4.5251   -0.0263   -2.0196 H   0  0  0  0  0  0  0  0  0  0  0  0
    5.3243   -0.0051    2.8287 H   0  0  0  0  0  0  0  0  0  0  0  0
    9.1311    2.3776    0.9455 H   0  0  0  0  0  0  0  0  0  0  0  0
    9.8085    2.9849   -1.3794 H   0  0  0  0  0  0  0  0  0  0  0  0
    8.4125    2.3181   -3.3014 H   0  0  0  0  0  0  0  0  0  0  0  0
    6.3045    1.0406   -2.9649 H   0  0  0  0  0  0  0  0  0  0  0  0
    4.1465   -2.0211    0.2608 H   0  0  0  0  0  0  0  0  0  0  0  0
    5.1172   -2.2259   -1.1850 H   0  0  0  0  0  0  0  0  0  0  0  0
    3.1573   -2.1350   -2.6269 H   0  0  0  0  0  0  0  0  0  0  0  0
    2.8928   -3.3419   -1.3953 H   0  0  0  0  0  0  0  0  0  0  0  0
    0.3983   -0.3183    2.1516 H   0  0  0  0  0  0  0  0  0  0  0  0
   -1.8916    0.4293    2.6230 H   0  0  0  0  0  0  0  0  0  0  0  0
   -3.9218    2.9801   -0.9459 H   0  0  0  0  0  0  0  0  0  0  0  0
  1  2  1  0
  2  3  2  0
  3  4  1  0
  4  5  1  0
  5  6  2  0
  6  7  1  0
  7  8  2  0
  8  9  1  0
  9 10  1  0
  9 11  2  0
 11 12  1  0
 12 13  2  0
 13 14  1  0
 14 15  2  0
 15 16  1  0
 16 17  2  0
 17 18  1  0
 18 19  2  0
 19 20  1  0
 20 21  1  0
 21 22  1  0
 22 23  1  0
 23 24  1  0
 24 25  1  0
 25 26  1  0
 26 27  1  0
 26 28  2  0
 28 29  1  0
 29 30  2  0
 30 31  1  0
 31 32  2  0
 32 33  1  0
 33 34  2  0
 24 35  1  0
 35 36  1  0
 19 37  1  0
 37 38  2  0
  4 39  2  0
 39 40  1  0
 40  2  1  0
 15  5  1  0
 38 16  1  0
 13  7  1  0
 36 21  1  0
 34 25  1  0
 34 29  1  0
  1 41  1  0
  1 42  1  0
  1 43  1  0
  8 44  1  0
 10 45  1  0
 11 46  1  0
 12 47  1  0
 17 48  1  0
 18 49  1  0
 20 50  1  0
 20 51  1  0
 22 52  1  0
 22 53  1  0
 23 54  1  0
 23 55  1  0
 24 56  1  0
 27 57  1  0
 30 58  1  0
 31 59  1  0
 32 60  1  0
 33 61  1  0
 35 62  1  0
 35 63  1  0
 36 64  1  0
 36 65  1  0
 37 66  1  0
 38 67  1  0
 39 68  1  0
M  END
$$$$
