
     RDKit          3D

 80 84  0  0  0  0  0  0  0  0999 V2000
    0.8126    6.2275    1.1713 C   0  0  0  0  0  0  0  0  0  0  0  0
    1.9183    5.9391    0.1632 C   0  0  2  0  0  0  0  0  0  0  0  0
    1.5656    6.5533   -1.0538 O   0  0  0  0  0  0  0  0  0  0  0  0
    2.0124    4.5097   -0.0725 N   0  0  0  0  0  0  0  0  0  0  0  0
    3.2637    4.1445   -0.7494 C   0  0  0  0  0  0  0  0  0  0  0  0
    3.2742    2.6886   -1.2850 C   0  0  0  0  0  0  0  0  0  0  0  0
    4.7113    2.3956   -1.6905 C   0  0  0  0  0  0  0  0  0  0  0  0
    5.3137    2.8874   -2.6286 O   0  0  0  0  0  0  0  0  0  0  0  0
    5.2766    1.5635   -0.7543 N   0  0  0  0  0  0  0  0  0  0  0  0
    4.3000    1.0020    0.1187 C   0  0  0  0  0  0  0  0  0  0  0  0
    4.2674   -0.4943   -0.0436 C   0  0  0  0  0  0  0  0  0  0  0  0
    4.7960   -1.3204    0.9400 C   0  0  0  0  0  0  0  0  0  0  0  0
    5.3437   -0.7796    2.0368 F   0  0  0  0  0  0  0  0  0  0  0  0
    4.7899   -2.7157    0.8205 C   0  0  0  0  0  0  0  0  0  0  0  0
    4.2459   -3.3557   -0.3006 C   0  0  0  0  0  0  0  0  0  0  0  0
    4.2465   -4.7443   -0.4558 N   0  0  0  0  0  0  0  0  0  0  0  0
    4.8379   -5.5984    0.5719 C   0  0  0  0  0  0  0  0  0  0  0  0
    3.1416   -5.3441   -1.2113 C   0  0  0  0  0  0  0  0  0  0  0  0
    3.7327   -2.5136   -1.2984 C   0  0  0  0  0  0  0  0  0  0  0  0
    3.7431   -1.1219   -1.1683 C   0  0  0  0  0  0  0  0  0  0  0  0
    3.2347   -0.3905   -2.1707 F   0  0  0  0  0  0  0  0  0  0  0  0
    3.0712    1.6638   -0.2549 N   0  0  0  0  0  0  0  0  0  0  0  0
    1.8882    1.3220    0.3663 C   0  0  0  0  0  0  0  0  0  0  0  0
    1.9107    0.7497    1.4571 O   0  0  0  0  0  0  0  0  0  0  0  0
    0.5866    1.5922   -0.4258 C   0  0  0  0  0  0  0  0  0  0  0  0
   -0.6222    1.2377    0.3454 N   0  0  0  0  0  0  0  0  0  0  0  0
   -1.8301    1.8252   -0.2371 C   0  0  0  0  0  0  0  0  0  0  0  0
   -3.0555    1.4732    0.6097 C   0  0  0  0  0  0  0  0  0  0  0  0
   -3.2504   -0.0508    0.7610 C   0  0  0  0  0  0  0  0  0  0  0  0
   -4.5449   -0.5695    0.1567 C   0  0  0  0  0  0  0  0  0  0  0  0
   -4.9517   -0.1998   -1.1401 C   0  0  0  0  0  0  0  0  0  0  0  0
   -6.1500   -0.6756   -1.6981 C   0  0  0  0  0  0  0  0  0  0  0  0
   -6.9587   -1.5450   -0.9757 C   0  0  0  0  0  0  0  0  0  0  0  0
   -8.1293   -2.0176   -1.4809 O   0  0  0  0  0  0  0  0  0  0  0  0
   -6.5589   -1.9423    0.2843 C   0  0  0  0  0  0  0  0  0  0  0  0
   -5.3651   -1.4636    0.8473 C   0  0  0  0  0  0  0  0  0  0  0  0
   -5.1939   -2.0169    2.2324 C   0  0  0  0  0  0  0  0  0  0  0  0
   -6.1609   -3.2057    2.2118 C   0  0  0  0  0  0  0  0  0  0  0  0
   -7.2844   -2.8382    1.2380 C   0  0  0  0  0  0  0  0  0  0  0  0
   -2.0583   -0.8346    0.1940 C   0  0  0  0  0  0  0  0  0  0  0  0
   -0.7271   -0.2062    0.6088 C   0  0  0  0  0  0  0  0  0  0  0  0
    1.0532    5.8192    2.1593 H   0  0  0  0  0  0  0  0  0  0  0  0
    0.6556    7.3062    1.2649 H   0  0  0  0  0  0  0  0  0  0  0  0
   -0.1405    5.7988    0.8420 H   0  0  0  0  0  0  0  0  0  0  0  0
    2.8584    6.3673    0.5291 H   0  0  0  0  0  0  0  0  0  0  0  0
    1.2182    5.8178   -1.5828 H   0  0  0  0  0  0  0  0  0  0  0  0
    1.9879    4.0338    0.8353 H   0  0  0  0  0  0  0  0  0  0  0  0
    3.4458    4.8147   -1.6007 H   0  0  0  0  0  0  0  0  0  0  0  0
    4.0950    4.2907   -0.0471 H   0  0  0  0  0  0  0  0  0  0  0  0
    2.5820    2.5313   -2.1169 H   0  0  0  0  0  0  0  0  0  0  0  0
    6.2120    1.1993   -0.8813 H   0  0  0  0  0  0  0  0  0  0  0  0
    4.5503    1.2958    1.1449 H   0  0  0  0  0  0  0  0  0  0  0  0
    5.2154   -3.2791    1.6436 H   0  0  0  0  0  0  0  0  0  0  0  0
    4.9375   -6.6224    0.2024 H   0  0  0  0  0  0  0  0  0  0  0  0
    4.2228   -5.6203    1.4726 H   0  0  0  0  0  0  0  0  0  0  0  0
    5.8500   -5.2759    0.8286 H   0  0  0  0  0  0  0  0  0  0  0  0
    2.1744   -5.0023   -0.8297 H   0  0  0  0  0  0  0  0  0  0  0  0
    3.1494   -6.4350   -1.1312 H   0  0  0  0  0  0  0  0  0  0  0  0
    3.2185   -5.1156   -2.2777 H   0  0  0  0  0  0  0  0  0  0  0  0
    3.3337   -2.9170   -2.2240 H   0  0  0  0  0  0  0  0  0  0  0  0
    0.5464    2.6496   -0.6835 H   0  0  0  0  0  0  0  0  0  0  0  0
    0.6294    1.0210   -1.3616 H   0  0  0  0  0  0  0  0  0  0  0  0
   -1.9751    1.4944   -1.2734 H   0  0  0  0  0  0  0  0  0  0  0  0
   -1.7342    2.9182   -0.2601 H   0  0  0  0  0  0  0  0  0  0  0  0
   -2.9142    1.9037    1.6131 H   0  0  0  0  0  0  0  0  0  0  0  0
   -3.9474    1.9680    0.2059 H   0  0  0  0  0  0  0  0  0  0  0  0
   -3.2822   -0.2353    1.8436 H   0  0  0  0  0  0  0  0  0  0  0  0
   -4.3371    0.4701   -1.7363 H   0  0  0  0  0  0  0  0  0  0  0  0
   -6.4282   -0.3565   -2.6968 H   0  0  0  0  0  0  0  0  0  0  0  0
   -8.2847   -1.5993   -2.3416 H   0  0  0  0  0  0  0  0  0  0  0  0
   -5.5007   -1.2742    2.9751 H   0  0  0  0  0  0  0  0  0  0  0  0
   -4.1723   -2.3511    2.4297 H   0  0  0  0  0  0  0  0  0  0  0  0
   -5.6315   -4.0905    1.8315 H   0  0  0  0  0  0  0  0  0  0  0  0
   -6.5353   -3.4582    3.2086 H   0  0  0  0  0  0  0  0  0  0  0  0
   -8.0797   -2.2823    1.7411 H   0  0  0  0  0  0  0  0  0  0  0  0
   -7.6941   -3.7274    0.7530 H   0  0  0  0  0  0  0  0  0  0  0  0
   -2.1053   -0.8775   -0.9027 H   0  0  0  0  0  0  0  0  0  0  0  0
   -2.0932   -1.8767    0.5392 H   0  0  0  0  0  0  0  0  0  0  0  0
    0.0718   -0.7750    0.1161 H   0  0  0  0  0  0  0  0  0  0  0  0
   -0.5952   -0.3590    1.6861 H   0  0  0  0  0  0  0  0  0  0  0  0
  1  2  1  0
  2  3  1  0
  2  4  1  0
  4  5  1  0
  5  6  1  0
  6  7  1  0
  7  8  2  0
  7  9  1  0
  9 10  1  0
 10 11  1  0
 11 12  2  0
 12 13  1  0
 12 14  1  0
 14 15  2  0
 15 16  1  0
 16 17  1  0
 16 18  1  0
 15 19  1  0
 19 20  2  0
 20 21  1  0
 10 22  1  0
 22 23  1  0
 23 24  2  0
 23 25  1  0
 25 26  1  0
 26 27  1  0
 27 28  1  0
 28 29  1  0
 29 30  1  0
 30 31  2  0
 31 32  1  0
 32 33  2  0
 33 34  1  0
 33 35  1  0
 35 36  2  0
 36 37  1  0
 37 38  1  0
 38 39  1  0
 29 40  1  0
 40 41  1  0
 22  6  1  0
 41 26  1  0
 20 11  1  0
 36 30  1  0
 39 35  1  0
  1 42  1  0
  1 43  1  0
  1 44  1  0
  2 45  1  1
  3 46  1  0
  4 47  1  0
  5 48  1  0
  5 49  1  0
  6 50  1  0
  9 51  1  0
 10 52  1  0
 14 53  1  0
 17 54  1  0
 17 55  1  0
 17 56  1  0
 18 57  1  0
 18 58  1  0
 18 59  1  0
 19 60  1  0
 25 61  1  0
 25 62  1  0
 27 63  1  0
 27 64  1  0
 28 65  1  0
 28 66  1  0
 29 67  1  0
 31 68  1  0
 32 69  1  0
 34 70  1  0
 37 71  1  0
 37 72  1  0
 38 73  1  0
 38 74  1  0
 39 75  1  0
 39 76  1  0
 40 77  1  0
 40 78  1  0
 41 79  1  0
 41 80  1  0
M  END
$$$$
