
     RDKit          3D

 61 64  0  0  0  0  0  0  0  0999 V2000
    3.1824    3.3082    0.9530 C   0  0  0  0  0  0  0  0  0  0  0  0
    2.5715    3.4371   -0.3234 O   0  0  0  0  0  0  0  0  0  0  0  0
    1.2269    3.9459   -0.2712 C   0  0  0  0  0  0  0  0  0  0  0  0
    0.8897    4.4681   -1.6708 C   0  0  0  0  0  0  0  0  0  0  0  0
    0.8124    3.3514   -2.7208 C   0  0  0  0  0  0  0  0  0  0  0  0
    0.7003    1.9491   -2.1185 C   0  0  0  0  0  0  0  0  0  0  0  0
   -0.1971    1.9952   -0.9687 N   0  0  0  0  0  0  0  0  0  0  0  0
   -0.8465    0.8139   -0.5951 C   0  0  0  0  0  0  0  0  0  0  0  0
   -2.2426    0.8176   -0.7228 C   0  0  0  0  0  0  0  0  0  0  0  0
   -2.9991   -0.2926   -0.3709 C   0  0  0  0  0  0  0  0  0  0  0  0
   -4.3987   -0.2141   -0.5147 N   0  0  0  0  0  0  0  0  0  0  0  0
   -5.3606   -1.0658   -0.1056 C   0  0  0  0  0  0  0  0  0  0  0  0
   -5.2576   -2.0266    0.9266 C   0  0  0  0  0  0  0  0  0  0  0  0
   -6.4911   -2.6354    0.9933 C   0  0  0  0  0  0  0  0  0  0  0  0
   -7.0199   -3.7131    1.8549 C   0  0  0  0  0  0  0  0  0  0  0  0
   -7.2432   -2.0199    0.0345 N   0  0  0  0  0  0  0  0  0  0  0  0
   -6.5888   -1.0584   -0.6347 N   0  0  0  0  0  0  0  0  0  0  0  0
   -2.4089   -1.3822    0.1479 N   0  0  0  0  0  0  0  0  0  0  0  0
   -1.0597   -1.4066    0.2919 C   0  0  0  0  0  0  0  0  0  0  0  0
   -0.5302   -2.6739    0.9054 C   0  0  0  0  0  0  0  0  0  0  0  0
   -0.2239   -0.3387   -0.0816 C   0  0  0  0  0  0  0  0  0  0  0  0
    1.2766   -0.4513    0.0735 C   0  0  0  0  0  0  0  0  0  0  0  0
    1.9338   -1.2049   -1.0881 C   0  0  0  0  0  0  0  0  0  0  0  0
    3.3776   -1.0988   -1.0670 N   0  0  0  0  0  0  0  0  0  0  0  0
    4.1509   -1.7611   -0.1424 C   0  0  0  0  0  0  0  0  0  0  0  0
    3.6959   -2.4132    0.7901 O   0  0  0  0  0  0  0  0  0  0  0  0
    5.5081   -1.5659   -0.4083 N   0  0  0  0  0  0  0  0  0  0  0  0
    6.4317   -1.3717    0.6736 C   0  0  0  0  0  0  0  0  0  0  0  0
    6.4557   -2.6112   -0.1425 C   0  0  0  0  0  0  0  0  0  0  0  0
    0.1927    2.8730    0.1537 C   0  0  0  0  0  0  0  0  0  0  0  0
    2.6642    2.5702    1.5696 H   0  0  0  0  0  0  0  0  0  0  0  0
    4.2098    2.9656    0.8041 H   0  0  0  0  0  0  0  0  0  0  0  0
    3.2117    4.2742    1.4648 H   0  0  0  0  0  0  0  0  0  0  0  0
    1.1988    4.7838    0.4365 H   0  0  0  0  0  0  0  0  0  0  0  0
   -0.0742    4.9905   -1.6352 H   0  0  0  0  0  0  0  0  0  0  0  0
    1.6375    5.2025   -1.9921 H   0  0  0  0  0  0  0  0  0  0  0  0
    1.6931    3.3886   -3.3729 H   0  0  0  0  0  0  0  0  0  0  0  0
   -0.0527    3.5439   -3.3679 H   0  0  0  0  0  0  0  0  0  0  0  0
    0.3204    1.2669   -2.8891 H   0  0  0  0  0  0  0  0  0  0  0  0
    1.6948    1.5918   -1.8347 H   0  0  0  0  0  0  0  0  0  0  0  0
   -2.7328    1.7076   -1.1047 H   0  0  0  0  0  0  0  0  0  0  0  0
   -4.6582    0.3195   -1.3342 H   0  0  0  0  0  0  0  0  0  0  0  0
   -4.3950   -2.2435    1.5398 H   0  0  0  0  0  0  0  0  0  0  0  0
   -7.7804   -3.3213    2.5379 H   0  0  0  0  0  0  0  0  0  0  0  0
   -7.4729   -4.5065    1.2517 H   0  0  0  0  0  0  0  0  0  0  0  0
   -6.2229   -4.1608    2.4565 H   0  0  0  0  0  0  0  0  0  0  0  0
   -8.2101   -2.2005   -0.2130 H   0  0  0  0  0  0  0  0  0  0  0  0
   -1.3546   -3.3400    1.1838 H   0  0  0  0  0  0  0  0  0  0  0  0
    0.1016   -3.2157    0.1975 H   0  0  0  0  0  0  0  0  0  0  0  0
    0.0331   -2.4582    1.8184 H   0  0  0  0  0  0  0  0  0  0  0  0
    1.5153   -0.9341    1.0284 H   0  0  0  0  0  0  0  0  0  0  0  0
    1.7324    0.5384    0.1700 H   0  0  0  0  0  0  0  0  0  0  0  0
    1.6739   -2.2680   -1.0691 H   0  0  0  0  0  0  0  0  0  0  0  0
    1.6028   -0.8085   -2.0534 H   0  0  0  0  0  0  0  0  0  0  0  0
    3.8676   -0.7754   -1.8889 H   0  0  0  0  0  0  0  0  0  0  0  0
    6.0006   -1.4046    1.6660 H   0  0  0  0  0  0  0  0  0  0  0  0
    7.1573   -0.5947    0.4825 H   0  0  0  0  0  0  0  0  0  0  0  0
    6.0408   -3.5234    0.2674 H   0  0  0  0  0  0  0  0  0  0  0  0
    7.2018   -2.7207   -0.9165 H   0  0  0  0  0  0  0  0  0  0  0  0
    0.5715    2.2910    0.9993 H   0  0  0  0  0  0  0  0  0  0  0  0
   -0.7135    3.3876    0.4961 H   0  0  0  0  0  0  0  0  0  0  0  0
  1  2  1  0
  2  3  1  0
  3  4  1  0
  4  5  1  0
  5  6  1  0
  6  7  1  0
  7  8  1  0
  8  9  2  0
  9 10  1  0
 10 11  1  0
 11 12  1  0
 12 13  1  0
 13 14  2  0
 14 15  1  0
 14 16  1  0
 16 17  1  0
 10 18  2  0
 18 19  1  0
 19 20  1  0
 19 21  2  0
 21 22  1  0
 22 23  1  0
 23 24  1  0
 24 25  1  0
 25 26  2  0
 25 27  1  0
 27 28  1  0
 28 29  1  0
  7 30  1  0
 30  3  1  0
 21  8  1  0
 29 27  1  0
 17 12  2  0
  1 31  1  0
  1 32  1  0
  1 33  1  0
  3 34  1  0
  4 35  1  0
  4 36  1  0
  5 37  1  0
  5 38  1  0
  6 39  1  0
  6 40  1  0
  9 41  1  0
 11 42  1  0
 13 43  1  0
 15 44  1  0
 15 45  1  0
 15 46  1  0
 16 47  1  0
 20 48  1  0
 20 49  1  0
 20 50  1  0
 22 51  1  0
 22 52  1  0
 23 53  1  0
 23 54  1  0
 24 55  1  0
 28 56  1  0
 28 57  1  0
 29 58  1  0
 29 59  1  0
 30 60  1  0
 30 61  1  0
M  END
$$$$
