
     RDKit          3D

 52 54  0  0  0  0  0  0  0  0999 V2000
   -6.1144    2.3465    0.6180 O   0  0  0  0  0  0  0  0  0  0  0  0
   -6.4094    1.4535    1.3930 C   0  0  0  0  0  0  0  0  0  0  0  0
   -7.6726    1.3272    1.8443 O   0  0  0  0  0  0  0  0  0  0  0  0
   -5.4951    0.4182    1.9822 C   0  0  0  0  0  0  0  0  0  0  0  0
   -4.1340    0.3953    1.2849 C   0  0  0  0  0  0  0  0  0  0  0  0
   -3.2305   -0.3412    2.1156 O   0  0  0  0  0  0  0  0  0  0  0  0
   -4.2057   -0.2955   -0.0860 C   0  0  0  0  0  0  0  0  0  0  0  0
   -3.0128   -0.0020   -1.0109 C   0  0  0  0  0  0  0  0  0  0  0  0
   -1.6641   -0.5090   -0.4863 C   0  0  0  0  0  0  0  0  0  0  0  0
   -0.4780   -0.2782   -1.4655 C   0  0  0  0  0  0  0  0  0  0  0  0
   -0.6552   -1.1077   -2.7502 C   0  0  0  0  0  0  0  0  0  0  0  0
    0.5052   -1.0518   -3.7440 C   0  0  0  0  0  0  0  0  0  0  0  0
    1.2001    0.3069   -3.8206 C   0  0  0  0  0  0  0  0  0  0  0  0
    2.1609    0.5681   -2.6927 C   0  0  0  0  0  0  0  0  0  0  0  0
    2.0790    0.1487   -1.4138 C   0  0  0  0  0  0  0  0  0  0  0  0
    3.2473    0.3368   -0.5554 C   0  0  0  0  0  0  0  0  0  0  0  0
    3.3208   -0.3464    0.6019 C   0  0  0  0  0  0  0  0  0  0  0  0
    4.4737   -0.2672    1.5177 C   0  0  0  0  0  0  0  0  0  0  0  0
    5.7928   -0.2526    1.0392 C   0  0  0  0  0  0  0  0  0  0  0  0
    6.8736   -0.1861    1.9231 C   0  0  0  0  0  0  0  0  0  0  0  0
    6.6498   -0.1390    3.2971 C   0  0  0  0  0  0  0  0  0  0  0  0
    5.3469   -0.1627    3.7888 C   0  0  0  0  0  0  0  0  0  0  0  0
    4.2667   -0.2300    2.9048 C   0  0  0  0  0  0  0  0  0  0  0  0
    2.2870   -1.1793    1.0304 O   0  0  0  0  0  0  0  0  0  0  0  0
    1.0872   -1.1365    0.3427 C   0  0  0  0  0  0  0  0  0  0  0  0
    0.8909   -0.4924   -0.8250 C   0  0  0  0  0  0  0  0  0  0  0  0
   -8.1628    2.0536    1.4047 H   0  0  0  0  0  0  0  0  0  0  0  0
   -5.9684   -0.5682    1.9147 H   0  0  0  0  0  0  0  0  0  0  0  0
   -5.3671    0.6512    3.0457 H   0  0  0  0  0  0  0  0  0  0  0  0
   -3.7352    1.4105    1.1736 H   0  0  0  0  0  0  0  0  0  0  0  0
   -3.0260    0.2112    2.8904 H   0  0  0  0  0  0  0  0  0  0  0  0
   -4.2853   -1.3817    0.0492 H   0  0  0  0  0  0  0  0  0  0  0  0
   -5.1081    0.0298   -0.6175 H   0  0  0  0  0  0  0  0  0  0  0  0
   -2.9518    1.0780   -1.1916 H   0  0  0  0  0  0  0  0  0  0  0  0
   -3.2365   -0.4703   -1.9751 H   0  0  0  0  0  0  0  0  0  0  0  0
   -1.7507   -1.5765   -0.2477 H   0  0  0  0  0  0  0  0  0  0  0  0
   -1.4414    0.0211    0.4468 H   0  0  0  0  0  0  0  0  0  0  0  0
   -0.5362    0.7865   -1.7357 H   0  0  0  0  0  0  0  0  0  0  0  0
   -0.8525   -2.1583   -2.5014 H   0  0  0  0  0  0  0  0  0  0  0  0
   -1.5451   -0.7484   -3.2804 H   0  0  0  0  0  0  0  0  0  0  0  0
    0.1163   -1.3113   -4.7370 H   0  0  0  0  0  0  0  0  0  0  0  0
    1.2365   -1.8330   -3.4980 H   0  0  0  0  0  0  0  0  0  0  0  0
    1.7879    0.3154   -4.7480 H   0  0  0  0  0  0  0  0  0  0  0  0
    0.4805    1.1285   -3.9069 H   0  0  0  0  0  0  0  0  0  0  0  0
    3.0672    1.0801   -3.0154 H   0  0  0  0  0  0  0  0  0  0  0  0
    4.0437    0.9970   -0.8793 H   0  0  0  0  0  0  0  0  0  0  0  0
    5.9938   -0.3085   -0.0280 H   0  0  0  0  0  0  0  0  0  0  0  0
    7.8896   -0.1775    1.5372 H   0  0  0  0  0  0  0  0  0  0  0  0
    7.4902   -0.0892    3.9844 H   0  0  0  0  0  0  0  0  0  0  0  0
    5.1681   -0.1310    4.8603 H   0  0  0  0  0  0  0  0  0  0  0  0
    3.2559   -0.2472    3.3073 H   0  0  0  0  0  0  0  0  0  0  0  0
    0.3274   -1.6513    0.9143 H   0  0  0  0  0  0  0  0  0  0  0  0
  1  2  2  0
  2  3  1  0
  2  4  1  0
  4  5  1  0
  5  6  1  0
  5  7  1  0
  7  8  1  0
  8  9  1  0
  9 10  1  0
 10 11  1  0
 11 12  1  0
 12 13  1  0
 13 14  1  0
 14 15  2  0
 15 16  1  0
 16 17  2  0
 17 18  1  0
 18 19  2  0
 19 20  1  0
 20 21  2  0
 21 22  1  0
 22 23  2  0
 17 24  1  0
 24 25  1  0
 25 26  2  0
 26 10  1  0
 26 15  1  0
 23 18  1  0
  3 27  1  0
  4 28  1  0
  4 29  1  0
  5 30  1  0
  6 31  1  0
  7 32  1  0
  7 33  1  0
  8 34  1  0
  8 35  1  0
  9 36  1  0
  9 37  1  0
 10 38  1  0
 11 39  1  0
 11 40  1  0
 12 41  1  0
 12 42  1  0
 13 43  1  0
 13 44  1  0
 14 45  1  0
 16 46  1  0
 19 47  1  0
 20 48  1  0
 21 49  1  0
 22 50  1  0
 23 51  1  0
 25 52  1  0
M  END
$$$$
