
     RDKit          3D

 50 52  0  0  0  0  0  0  0  0999 V2000
    6.1823   -2.5027   -0.2559 C   0  0  0  0  0  0  0  0  0  0  0  0
    4.9809   -1.9833    0.5183 C   0  0  0  0  0  0  0  0  0  0  0  0
    4.2441   -0.8429   -0.1790 C   0  0  0  0  0  0  0  0  0  0  0  0
    5.1446    0.7106   -0.1303 S   0  0  0  0  0  0  0  0  0  0  0  0
    5.3181    1.1077    1.2505 O   0  0  0  0  0  0  0  0  0  0  0  0
    6.2794    0.6031   -1.0239 O   0  0  0  0  0  0  0  0  0  0  0  0
    4.0785    1.7796   -0.8914 N   0  0  0  0  0  0  0  0  0  0  0  0
    2.7908    1.9793   -0.2924 C   0  0  0  0  0  0  0  0  0  0  0  0
    2.6532    2.6060    0.9426 C   0  0  0  0  0  0  0  0  0  0  0  0
    1.3837    2.7691    1.4913 C   0  0  0  0  0  0  0  0  0  0  0  0
    0.2562    2.3221    0.7971 C   0  0  0  0  0  0  0  0  0  0  0  0
    0.3833    1.6874   -0.4496 C   0  0  0  0  0  0  0  0  0  0  0  0
   -0.8272    1.3052   -1.1915 C   0  0  0  0  0  0  0  0  0  0  0  0
   -1.8095    0.4704   -0.8120 C   0  0  0  0  0  0  0  0  0  0  0  0
   -3.2895    0.4123   -1.7562 S   0  0  0  0  0  0  0  0  0  0  0  0
   -4.2088   -0.1643   -0.3610 C   0  0  0  0  0  0  0  0  0  0  0  0
   -5.5871   -0.3079   -0.2356 C   0  0  0  0  0  0  0  0  0  0  0  0
   -6.5288    0.0352   -1.3505 C   0  0  0  0  0  0  0  0  0  0  0  0
   -6.0794   -0.7945    0.9861 C   0  0  0  0  0  0  0  0  0  0  0  0
   -5.1936   -1.1166    2.0219 C   0  0  0  0  0  0  0  0  0  0  0  0
   -5.7214   -1.6401    3.3248 C   0  0  0  0  0  0  0  0  0  0  0  0
   -3.8541   -0.9811    1.9067 N   0  0  0  0  0  0  0  0  0  0  0  0
   -3.4120   -0.5066    0.7200 C   0  0  0  0  0  0  0  0  0  0  0  0
   -1.9618   -0.3510    0.4479 C   0  0  0  0  0  0  0  0  0  0  0  0
   -1.0998   -0.9432    1.2105 N   0  0  0  0  0  0  0  0  0  0  0  0
    0.1989   -0.8912    0.7111 O   0  0  0  0  0  0  0  0  0  0  0  0
    1.6685    1.4804   -0.9882 C   0  0  0  0  0  0  0  0  0  0  0  0
    1.8677    0.9713   -2.3084 N   0  0  0  0  0  0  0  0  0  0  0  0
    6.5759   -3.4038    0.2257 H   0  0  0  0  0  0  0  0  0  0  0  0
    5.9087   -2.7615   -1.2836 H   0  0  0  0  0  0  0  0  0  0  0  0
    6.9915   -1.7685   -0.2849 H   0  0  0  0  0  0  0  0  0  0  0  0
    5.2989   -1.6789    1.5217 H   0  0  0  0  0  0  0  0  0  0  0  0
    4.2774   -2.8149    0.6462 H   0  0  0  0  0  0  0  0  0  0  0  0
    4.0423   -1.0821   -1.2274 H   0  0  0  0  0  0  0  0  0  0  0  0
    3.2970   -0.6794    0.3432 H   0  0  0  0  0  0  0  0  0  0  0  0
    3.9844    1.5202   -1.8779 H   0  0  0  0  0  0  0  0  0  0  0  0
    3.5252    2.9759    1.4761 H   0  0  0  0  0  0  0  0  0  0  0  0
    1.2700    3.2563    2.4569 H   0  0  0  0  0  0  0  0  0  0  0  0
   -0.7256    2.4810    1.2388 H   0  0  0  0  0  0  0  0  0  0  0  0
   -0.9246    1.8439   -2.1333 H   0  0  0  0  0  0  0  0  0  0  0  0
   -7.5706   -0.1416   -1.0627 H   0  0  0  0  0  0  0  0  0  0  0  0
   -6.4358    1.0928   -1.6170 H   0  0  0  0  0  0  0  0  0  0  0  0
   -6.3205   -0.5829   -2.2297 H   0  0  0  0  0  0  0  0  0  0  0  0
   -7.1484   -0.9266    1.1357 H   0  0  0  0  0  0  0  0  0  0  0  0
   -6.2650   -2.5761    3.1633 H   0  0  0  0  0  0  0  0  0  0  0  0
   -6.3932   -0.9071    3.7821 H   0  0  0  0  0  0  0  0  0  0  0  0
   -4.9036   -1.8367    4.0257 H   0  0  0  0  0  0  0  0  0  0  0  0
    0.7117   -1.2931    1.4372 H   0  0  0  0  0  0  0  0  0  0  0  0
    1.1187    0.3196   -2.5454 H   0  0  0  0  0  0  0  0  0  0  0  0
    1.8285    1.7491   -2.9687 H   0  0  0  0  0  0  0  0  0  0  0  0
  1  2  1  0
  2  3  1  0
  3  4  1  0
  4  5  2  0
  4  6  2  0
  4  7  1  0
  7  8  1  0
  8  9  2  0
  9 10  1  0
 10 11  2  0
 11 12  1  0
 12 13  1  0
 13 14  2  3
 14 15  1  0
 15 16  1  0
 16 17  2  0
 17 18  1  0
 17 19  1  0
 19 20  2  0
 20 21  1  0
 20 22  1  0
 22 23  2  0
 23 24  1  0
 24 25  2  3
 25 26  1  0
 12 27  2  0
 27 28  1  0
 27  8  1  0
 24 14  1  0
 23 16  1  0
  1 29  1  0
  1 30  1  0
  1 31  1  0
  2 32  1  0
  2 33  1  0
  3 34  1  0
  3 35  1  0
  7 36  1  0
  9 37  1  0
 10 38  1  0
 11 39  1  0
 13 40  1  0
 18 41  1  0
 18 42  1  0
 18 43  1  0
 19 44  1  0
 21 45  1  0
 21 46  1  0
 21 47  1  0
 26 48  1  0
 28 49  1  0
 28 50  1  0
M  END
$$$$
