
     RDKit          3D

 62 68  0  0  0  0  0  0  0  0999 V2000
    1.7697    0.9649   -5.2602 C   0  0  0  0  0  0  0  0  0  0  0  0
    1.6567    0.8612   -3.8244 N   0  0  0  0  0  0  0  0  0  0  0  0
    0.4821    1.1495   -3.2382 N   0  0  0  0  0  0  0  0  0  0  0  0
    0.7067    0.9673   -1.9265 C   0  0  0  0  0  0  0  0  0  0  0  0
   -0.3435    1.2283   -0.9441 C   0  0  0  0  0  0  0  0  0  0  0  0
   -0.0732    1.9250    0.2295 C   0  0  0  0  0  0  0  0  0  0  0  0
   -1.0902    2.1652    1.1605 C   0  0  0  0  0  0  0  0  0  0  0  0
   -2.4152    1.7232    0.9450 C   0  0  0  0  0  0  0  0  0  0  0  0
   -3.3788    1.9918    1.9685 N   0  0  0  0  0  0  0  0  0  0  0  0
   -3.2221    2.7417    3.1208 C   0  0  0  0  0  0  0  0  0  0  0  0
   -4.4302    2.6674    3.7682 C   0  0  0  0  0  0  0  0  0  0  0  0
   -5.2806    1.8976    3.0452 N   0  0  0  0  0  0  0  0  0  0  0  0
   -4.6359    1.4905    1.9626 N   0  0  0  0  0  0  0  0  0  0  0  0
   -2.7121    1.0365   -0.2584 C   0  0  0  0  0  0  0  0  0  0  0  0
   -4.0725    0.5316   -0.7184 C   0  0  0  0  0  0  0  0  0  0  0  0
   -4.1546   -0.9392   -0.7690 N   0  0  0  0  0  0  0  0  0  0  0  0
   -4.2052   -1.5679    0.5695 C   0  0  0  0  0  0  0  0  0  0  0  0
   -5.6312   -1.9017    1.0357 C   0  0  0  0  0  0  0  0  0  0  0  0
   -6.3075   -2.8173    0.1576 O   0  0  0  0  0  0  0  0  0  0  0  0
   -5.8304   -2.7494   -1.1945 C   0  0  0  0  0  0  0  0  0  0  0  0
   -5.3332   -1.3468   -1.5703 C   0  0  0  0  0  0  0  0  0  0  0  0
   -1.6540    0.8005   -1.1767 C   0  0  0  0  0  0  0  0  0  0  0  0
    2.0438    0.5172   -1.6951 C   0  0  0  0  0  0  0  0  0  0  0  0
    2.8099    0.1360   -0.5803 C   0  0  0  0  0  0  0  0  0  0  0  0
    4.1390   -0.2341   -0.7945 C   0  0  0  0  0  0  0  0  0  0  0  0
    5.0546   -0.6317    0.3067 C   0  0  0  0  0  0  0  0  0  0  0  0
    6.2023   -1.4093    0.0373 C   0  0  0  0  0  0  0  0  0  0  0  0
    7.1118   -1.8078    1.0294 C   0  0  0  0  0  0  0  0  0  0  0  0
    6.8366   -1.3998    2.3332 C   0  0  0  0  0  0  0  0  0  0  0  0
    7.5003   -1.6037    3.5161 N   0  0  0  0  0  0  0  0  0  0  0  0
    6.9079   -1.0400    4.5854 N   0  0  0  0  0  0  0  0  0  0  0  0
    5.8327   -0.4553    4.0564 C   0  0  0  0  0  0  0  0  0  0  0  0
    4.9431    0.2326    4.7863 F   0  0  0  0  0  0  0  0  0  0  0  0
    5.7250   -0.6358    2.6621 C   0  0  0  0  0  0  0  0  0  0  0  0
    4.8305   -0.2431    1.6462 C   0  0  0  0  0  0  0  0  0  0  0  0
    4.6844   -0.2553   -2.0406 N   0  0  0  0  0  0  0  0  0  0  0  0
    3.9520    0.0859   -3.1266 C   0  0  0  0  0  0  0  0  0  0  0  0
    2.6346    0.4729   -2.9508 C   0  0  0  0  0  0  0  0  0  0  0  0
    2.7324    1.4182   -5.5088 H   0  0  0  0  0  0  0  0  0  0  0  0
    0.9618    1.5939   -5.6435 H   0  0  0  0  0  0  0  0  0  0  0  0
    1.6971   -0.0409   -5.6804 H   0  0  0  0  0  0  0  0  0  0  0  0
    0.9260    2.3040    0.4316 H   0  0  0  0  0  0  0  0  0  0  0  0
   -0.7973    2.7021    2.0583 H   0  0  0  0  0  0  0  0  0  0  0  0
   -2.3135    3.2598    3.3796 H   0  0  0  0  0  0  0  0  0  0  0  0
   -4.7266    3.1236    4.7016 H   0  0  0  0  0  0  0  0  0  0  0  0
   -4.9197    0.9694   -0.1913 H   0  0  0  0  0  0  0  0  0  0  0  0
   -4.1907    0.9194   -1.7423 H   0  0  0  0  0  0  0  0  0  0  0  0
   -3.6828   -0.9806    1.3300 H   0  0  0  0  0  0  0  0  0  0  0  0
   -3.6451   -2.5097    0.4936 H   0  0  0  0  0  0  0  0  0  0  0  0
   -5.6039   -2.3657    2.0273 H   0  0  0  0  0  0  0  0  0  0  0  0
   -6.2397   -0.9933    1.1173 H   0  0  0  0  0  0  0  0  0  0  0  0
   -5.0363   -3.4960   -1.3192 H   0  0  0  0  0  0  0  0  0  0  0  0
   -6.6580   -3.0434   -1.8476 H   0  0  0  0  0  0  0  0  0  0  0  0
   -6.1640   -0.6452   -1.4140 H   0  0  0  0  0  0  0  0  0  0  0  0
   -5.0662   -1.3180   -2.6324 H   0  0  0  0  0  0  0  0  0  0  0  0
   -1.8704    0.2640   -2.1029 H   0  0  0  0  0  0  0  0  0  0  0  0
    2.3609    0.1170    0.4040 H   0  0  0  0  0  0  0  0  0  0  0  0
    6.4048   -1.7204   -0.9891 H   0  0  0  0  0  0  0  0  0  0  0  0
    7.9846   -2.4025    0.7797 H   0  0  0  0  0  0  0  0  0  0  0  0
    8.3626   -2.1172    3.6596 H   0  0  0  0  0  0  0  0  0  0  0  0
    3.9830    0.3760    1.9237 H   0  0  0  0  0  0  0  0  0  0  0  0
    4.4478    0.0370   -4.0879 H   0  0  0  0  0  0  0  0  0  0  0  0
  1  2  1  0
  2  3  1  0
  3  4  2  0
  4  5  1  0
  5  6  2  0
  6  7  1  0
  7  8  2  0
  8  9  1  0
  9 10  1  0
 10 11  2  0
 11 12  1  0
 12 13  2  0
  8 14  1  0
 14 15  1  0
 15 16  1  0
 16 17  1  0
 17 18  1  0
 18 19  1  0
 19 20  1  0
 20 21  1  0
 14 22  2  0
  4 23  1  0
 23 24  2  0
 24 25  1  0
 25 26  1  0
 26 27  2  0
 27 28  1  0
 28 29  2  0
 29 30  1  0
 30 31  1  0
 31 32  2  0
 32 33  1  0
 32 34  1  0
 34 35  2  0
 25 36  2  0
 36 37  1  0
 37 38  2  0
 38  2  1  0
 22  5  1  0
 38 23  1  0
 13  9  1  0
 21 16  1  0
 35 26  1  0
 34 29  1  0
  1 39  1  0
  1 40  1  0
  1 41  1  0
  6 42  1  0
  7 43  1  0
 10 44  1  0
 11 45  1  0
 15 46  1  0
 15 47  1  0
 17 48  1  0
 17 49  1  0
 18 50  1  0
 18 51  1  0
 20 52  1  0
 20 53  1  0
 21 54  1  0
 21 55  1  0
 22 56  1  0
 24 57  1  0
 27 58  1  0
 28 59  1  0
 30 60  1  0
 35 61  1  0
 37 62  1  0
M  END
$$$$
