
     RDKit          3D

 41 42  0  0  0  0  0  0  0  0999 V2000
    3.7729    1.4436   -1.9141 N   0  0  0  0  0  0  0  0  0  0  0  0
    3.0728    1.6753   -0.6512 C   0  0  0  0  0  0  0  0  0  0  0  0
    3.7145    0.9017    0.4772 C   0  0  0  0  0  0  0  0  0  0  0  0
    4.7876    1.5025    1.1694 C   0  0  0  0  0  0  0  0  0  0  0  0
    5.4741    0.8135    2.1706 C   0  0  0  0  0  0  0  0  0  0  0  0
    6.7776    1.5773    2.9936 Cl  0  0  0  0  0  0  0  0  0  0  0  0
    5.1214   -0.4870    2.4989 C   0  0  0  0  0  0  0  0  0  0  0  0
    4.0698   -1.0860    1.8179 C   0  0  0  0  0  0  0  0  0  0  0  0
    3.7320   -2.3467    2.1350 F   0  0  0  0  0  0  0  0  0  0  0  0
    3.3518   -0.4208    0.8044 C   0  0  0  0  0  0  0  0  0  0  0  0
    2.2483   -1.0890    0.2133 N   0  0  0  0  0  0  0  0  0  0  0  0
    0.9681   -0.7483    0.5309 C   0  0  0  0  0  0  0  0  0  0  0  0
    0.5715    0.3744    1.0902 N   0  0  0  0  0  0  0  0  0  0  0  0
   -0.7938    0.3639    1.2814 C   0  0  0  0  0  0  0  0  0  0  0  0
   -1.4506   -0.7680    0.8460 C   0  0  0  0  0  0  0  0  0  0  0  0
   -2.9111   -1.0973    0.8937 C   0  0  0  0  0  0  0  0  0  0  0  0
   -3.7515   -0.2103   -0.0381 C   0  0  0  0  0  0  0  0  0  0  0  0
   -3.5294   -0.5245   -1.5249 C   0  0  0  0  0  0  0  0  0  0  0  0
   -4.3037    0.4121   -2.4468 C   0  0  0  0  0  0  0  0  0  0  0  0
   -4.0417    0.0673   -3.8003 O   0  0  0  0  0  0  0  0  0  0  0  0
   -5.2032   -0.3751    0.3428 C   0  0  0  0  0  0  0  0  0  0  0  0
   -5.9128    0.4938    0.8213 O   0  0  0  0  0  0  0  0  0  0  0  0
   -5.6863   -1.6094    0.1182 O   0  0  0  0  0  0  0  0  0  0  0  0
   -0.3051   -1.8713    0.2089 S   0  0  0  0  0  0  0  0  0  0  0  0
    3.7084    0.4495   -2.1318 H   0  0  0  0  0  0  0  0  0  0  0  0
    4.7636    1.6439   -1.7910 H   0  0  0  0  0  0  0  0  0  0  0  0
    3.0949    2.7476   -0.4234 H   0  0  0  0  0  0  0  0  0  0  0  0
    2.0176    1.4264   -0.7768 H   0  0  0  0  0  0  0  0  0  0  0  0
    5.0881    2.5182    0.9178 H   0  0  0  0  0  0  0  0  0  0  0  0
    5.6448   -1.0388    3.2717 H   0  0  0  0  0  0  0  0  0  0  0  0
    2.3892   -2.0975    0.2347 H   0  0  0  0  0  0  0  0  0  0  0  0
   -1.2641    1.2235    1.7449 H   0  0  0  0  0  0  0  0  0  0  0  0
   -3.2511   -0.9724    1.9315 H   0  0  0  0  0  0  0  0  0  0  0  0
   -3.0779   -2.1559    0.6542 H   0  0  0  0  0  0  0  0  0  0  0  0
   -3.4991    0.8442    0.1380 H   0  0  0  0  0  0  0  0  0  0  0  0
   -2.4645   -0.4450   -1.7742 H   0  0  0  0  0  0  0  0  0  0  0  0
   -3.8069   -1.5616   -1.7518 H   0  0  0  0  0  0  0  0  0  0  0  0
   -4.0133    1.4548   -2.2920 H   0  0  0  0  0  0  0  0  0  0  0  0
   -5.3827    0.3280   -2.2888 H   0  0  0  0  0  0  0  0  0  0  0  0
   -3.0927    0.2046   -3.9643 H   0  0  0  0  0  0  0  0  0  0  0  0
   -6.6274   -1.5613    0.3938 H   0  0  0  0  0  0  0  0  0  0  0  0
  1  2  1  0
  2  3  1  0
  3  4  2  0
  4  5  1  0
  5  6  1  0
  5  7  2  0
  7  8  1  0
  8  9  1  0
  8 10  2  0
 10 11  1  0
 11 12  1  0
 12 13  2  0
 13 14  1  0
 14 15  2  0
 15 16  1  0
 16 17  1  0
 17 18  1  0
 18 19  1  0
 19 20  1  0
 17 21  1  0
 21 22  2  0
 21 23  1  0
 15 24  1  0
 10  3  1  0
 24 12  1  0
  1 25  1  0
  1 26  1  0
  2 27  1  0
  2 28  1  0
  4 29  1  0
  7 30  1  0
 11 31  1  0
 14 32  1  0
 16 33  1  0
 16 34  1  0
 17 35  1  0
 18 36  1  0
 18 37  1  0
 19 38  1  0
 19 39  1  0
 20 40  1  0
 23 41  1  0
M  END
$$$$
