
     RDKit          3D

 42 46  0  0  0  0  0  0  0  0999 V2000
    1.9336   -0.5934   -2.7110 N   0  0  0  0  0  0  0  0  0  0  0  0
    2.6884   -0.1883   -1.5824 C   0  0  0  0  0  0  0  0  0  0  0  0
    4.0824   -0.3311   -1.6024 C   0  0  0  0  0  0  0  0  0  0  0  0
    4.8571    0.0200   -0.4893 C   0  0  0  0  0  0  0  0  0  0  0  0
    6.3086   -0.0954   -0.5337 C   0  0  0  0  0  0  0  0  0  0  0  0
    6.9926   -0.5285   -1.6490 N   0  0  0  0  0  0  0  0  0  0  0  0
    8.2816   -0.5093   -1.3428 N   0  0  0  0  0  0  0  0  0  0  0  0
    8.3188   -0.0743   -0.0797 N   0  0  0  0  0  0  0  0  0  0  0  0
    7.1357    0.2043    0.4852 N   0  0  0  0  0  0  0  0  0  0  0  0
    4.2072    0.4862    0.6589 C   0  0  0  0  0  0  0  0  0  0  0  0
    2.8102    0.5637    0.7096 C   0  0  0  0  0  0  0  0  0  0  0  0
    2.0294    0.1759   -0.3823 C   0  0  0  0  0  0  0  0  0  0  0  0
    0.6227    0.1969   -0.3831 N   0  0  0  0  0  0  0  0  0  0  0  0
   -0.3253    0.5474    0.5717 C   0  0  0  0  0  0  0  0  0  0  0  0
   -0.0183    1.3111    1.6277 N   0  0  0  0  0  0  0  0  0  0  0  0
   -1.0110    1.6092    2.4813 C   0  0  0  0  0  0  0  0  0  0  0  0
   -2.3034    1.1800    2.3190 C   0  0  0  0  0  0  0  0  0  0  0  0
   -2.5504    0.4051    1.2051 C   0  0  0  0  0  0  0  0  0  0  0  0
   -3.8811   -0.1295    0.8893 C   0  0  0  0  0  0  0  0  0  0  0  0
   -4.7606   -0.6347    1.8673 C   0  0  0  0  0  0  0  0  0  0  0  0
   -4.3884   -0.6484    3.1577 F   0  0  0  0  0  0  0  0  0  0  0  0
   -6.0228   -1.1405    1.5591 C   0  0  0  0  0  0  0  0  0  0  0  0
   -6.4804   -1.1677    0.2424 C   0  0  0  0  0  0  0  0  0  0  0  0
   -5.6157   -0.6660   -0.7335 C   0  0  0  0  0  0  0  0  0  0  0  0
   -5.7619   -0.5510   -2.0924 N   0  0  0  0  0  0  0  0  0  0  0  0
   -4.7096    0.0033   -2.7135 N   0  0  0  0  0  0  0  0  0  0  0  0
   -3.8517    0.2369   -1.7174 C   0  0  0  0  0  0  0  0  0  0  0  0
   -4.3488   -0.1576   -0.4489 C   0  0  0  0  0  0  0  0  0  0  0  0
   -1.5664    0.0945    0.3303 N   0  0  0  0  0  0  0  0  0  0  0  0
    2.4780   -0.5816   -3.5694 H   0  0  0  0  0  0  0  0  0  0  0  0
    1.0968   -0.0223   -2.8104 H   0  0  0  0  0  0  0  0  0  0  0  0
    4.5673   -0.7007   -2.5031 H   0  0  0  0  0  0  0  0  0  0  0  0
    9.1966    0.0377    0.4195 H   0  0  0  0  0  0  0  0  0  0  0  0
    4.7802    0.7776    1.5373 H   0  0  0  0  0  0  0  0  0  0  0  0
    2.3517    0.9013    1.6338 H   0  0  0  0  0  0  0  0  0  0  0  0
    0.2203   -0.4862   -1.0129 H   0  0  0  0  0  0  0  0  0  0  0  0
   -0.7254    2.2264    3.3278 H   0  0  0  0  0  0  0  0  0  0  0  0
   -3.0734    1.4486    3.0298 H   0  0  0  0  0  0  0  0  0  0  0  0
   -6.6495   -1.5197    2.3621 H   0  0  0  0  0  0  0  0  0  0  0  0
   -7.4610   -1.5615   -0.0048 H   0  0  0  0  0  0  0  0  0  0  0  0
   -6.5589   -0.8273   -2.6544 H   0  0  0  0  0  0  0  0  0  0  0  0
   -2.8952    0.6887   -1.9479 H   0  0  0  0  0  0  0  0  0  0  0  0
  1  2  1  0
  2  3  2  0
  3  4  1  0
  4  5  1  0
  5  6  1  0
  6  7  2  0
  7  8  1  0
  8  9  1  0
  4 10  2  0
 10 11  1  0
 11 12  2  0
 12 13  1  0
 13 14  1  0
 14 15  2  0
 15 16  1  0
 16 17  2  0
 17 18  1  0
 18 19  1  0
 19 20  2  0
 20 21  1  0
 20 22  1  0
 22 23  2  0
 23 24  1  0
 24 25  1  0
 25 26  1  0
 26 27  2  0
 27 28  1  0
 18 29  2  0
 12  2  1  0
 29 14  1  0
  9  5  2  0
 28 19  1  0
 28 24  2  0
  1 30  1  0
  1 31  1  0
  3 32  1  0
  8 33  1  0
 10 34  1  0
 11 35  1  0
 13 36  1  0
 16 37  1  0
 17 38  1  0
 22 39  1  0
 23 40  1  0
 25 41  1  0
 27 42  1  0
M  END
$$$$
