
     RDKit          3D

 64 68  0  0  0  0  0  0  0  0999 V2000
    8.3142    2.9801   -1.7067 C   0  0  0  0  0  0  0  0  0  0  0  0
    7.1159    2.2503   -1.4719 O   0  0  0  0  0  0  0  0  0  0  0  0
    7.1191    1.3584   -0.4318 C   0  0  0  0  0  0  0  0  0  0  0  0
    8.2230    1.0546    0.3667 C   0  0  0  0  0  0  0  0  0  0  0  0
    8.0994    0.1271    1.4022 C   0  0  0  0  0  0  0  0  0  0  0  0
    6.8763   -0.4958    1.6439 C   0  0  0  0  0  0  0  0  0  0  0  0
    6.8577   -1.3851    2.6863 O   0  0  0  0  0  0  0  0  0  0  0  0
    5.7531   -0.2073    0.8563 C   0  0  0  0  0  0  0  0  0  0  0  0
    4.4645   -0.8881    1.1461 C   0  0  0  0  0  0  0  0  0  0  0  0
    4.3815   -1.6758    2.0895 O   0  0  0  0  0  0  0  0  0  0  0  0
    3.2415   -0.6389    0.3702 C   0  0  0  0  0  0  0  0  0  0  0  0
    2.3881    0.3743    0.8227 C   0  0  0  0  0  0  0  0  0  0  0  0
    1.1890    0.6211    0.1537 C   0  0  0  0  0  0  0  0  0  0  0  0
    0.8129   -0.1566   -0.9524 C   0  0  0  0  0  0  0  0  0  0  0  0
   -0.4700    0.1347   -1.7078 C   0  0  0  0  0  0  0  0  0  0  0  0
   -1.6408    0.3346   -0.8342 N   0  0  0  0  0  0  0  0  0  0  0  0
   -2.0672   -0.9241   -0.2020 C   0  0  0  0  0  0  0  0  0  0  0  0
   -3.2326   -0.6878    0.7596 C   0  0  0  0  0  0  0  0  0  0  0  0
   -4.3986   -0.0045    0.0381 C   0  0  0  0  0  0  0  0  0  0  0  0
   -5.5403    0.2446    0.9065 N   0  0  0  0  0  0  0  0  0  0  0  0
   -5.5693    1.0492    2.0110 C   0  0  0  0  0  0  0  0  0  0  0  0
   -4.5420    1.7276    2.4773 O   0  0  0  0  0  0  0  0  0  0  0  0
   -6.7393    1.0986    2.5866 N   0  0  0  0  0  0  0  0  0  0  0  0
   -7.5326    0.2862    1.8152 C   0  0  0  0  0  0  0  0  0  0  0  0
   -8.8922   -0.0267    1.9679 C   0  0  0  0  0  0  0  0  0  0  0  0
   -9.4963   -0.8876    1.0456 C   0  0  0  0  0  0  0  0  0  0  0  0
   -8.7633   -1.4239   -0.0137 C   0  0  0  0  0  0  0  0  0  0  0  0
   -7.4067   -1.1237   -0.1857 C   0  0  0  0  0  0  0  0  0  0  0  0
   -6.8150   -0.2641    0.7506 C   0  0  0  0  0  0  0  0  0  0  0  0
   -3.9275    1.2586   -0.6887 C   0  0  0  0  0  0  0  0  0  0  0  0
   -2.7394    0.9454   -1.5950 C   0  0  0  0  0  0  0  0  0  0  0  0
    1.6728   -1.1785   -1.3886 C   0  0  0  0  0  0  0  0  0  0  0  0
    2.8874   -1.4313   -0.7284 C   0  0  0  0  0  0  0  0  0  0  0  0
    3.7901   -2.5002   -1.2159 C   0  0  0  0  0  0  0  0  0  0  0  0
    4.9916   -2.5728   -1.0452 O   0  0  0  0  0  0  0  0  0  0  0  0
    3.1295   -3.4479   -1.9081 O   0  0  0  0  0  0  0  0  0  0  0  0
    5.8939    0.7196   -0.1810 C   0  0  0  0  0  0  0  0  0  0  0  0
    4.8471    1.0346   -0.9607 F   0  0  0  0  0  0  0  0  0  0  0  0
    8.5906    3.5792   -0.8327 H   0  0  0  0  0  0  0  0  0  0  0  0
    9.1307    2.3130   -2.0027 H   0  0  0  0  0  0  0  0  0  0  0  0
    8.1288    3.6693   -2.5357 H   0  0  0  0  0  0  0  0  0  0  0  0
    9.1933    1.5144    0.2096 H   0  0  0  0  0  0  0  0  0  0  0  0
    8.9594   -0.1157    2.0220 H   0  0  0  0  0  0  0  0  0  0  0  0
    5.9544   -1.7760    2.7341 H   0  0  0  0  0  0  0  0  0  0  0  0
    2.6487    0.9696    1.6946 H   0  0  0  0  0  0  0  0  0  0  0  0
    0.5343    1.4177    0.5045 H   0  0  0  0  0  0  0  0  0  0  0  0
   -0.2744    1.0488   -2.2845 H   0  0  0  0  0  0  0  0  0  0  0  0
   -0.6743   -0.6588   -2.4389 H   0  0  0  0  0  0  0  0  0  0  0  0
   -2.3582   -1.6617   -0.9615 H   0  0  0  0  0  0  0  0  0  0  0  0
   -1.2466   -1.3635    0.3765 H   0  0  0  0  0  0  0  0  0  0  0  0
   -2.8824   -0.0798    1.6031 H   0  0  0  0  0  0  0  0  0  0  0  0
   -3.5610   -1.6463    1.1807 H   0  0  0  0  0  0  0  0  0  0  0  0
   -4.7487   -0.7044   -0.7321 H   0  0  0  0  0  0  0  0  0  0  0  0
   -4.9398    2.1711    3.2483 H   0  0  0  0  0  0  0  0  0  0  0  0
   -9.4562    0.3956    2.7927 H   0  0  0  0  0  0  0  0  0  0  0  0
  -10.5486   -1.1379    1.1570 H   0  0  0  0  0  0  0  0  0  0  0  0
   -9.2556   -2.0902   -0.7195 H   0  0  0  0  0  0  0  0  0  0  0  0
   -6.8504   -1.5485   -1.0142 H   0  0  0  0  0  0  0  0  0  0  0  0
   -3.6369    2.0371    0.0273 H   0  0  0  0  0  0  0  0  0  0  0  0
   -4.7457    1.6760   -1.2883 H   0  0  0  0  0  0  0  0  0  0  0  0
   -3.0583    0.2893   -2.4153 H   0  0  0  0  0  0  0  0  0  0  0  0
   -2.4048    1.8882   -2.0448 H   0  0  0  0  0  0  0  0  0  0  0  0
    1.3953   -1.7779   -2.2549 H   0  0  0  0  0  0  0  0  0  0  0  0
    3.8307   -4.0877   -2.1524 H   0  0  0  0  0  0  0  0  0  0  0  0
  1  2  1  0
  2  3  1  0
  3  4  2  0
  4  5  1  0
  5  6  2  0
  6  7  1  0
  6  8  1  0
  8  9  1  0
  9 10  2  0
  9 11  1  0
 11 12  2  0
 12 13  1  0
 13 14  2  0
 14 15  1  0
 15 16  1  0
 16 17  1  0
 17 18  1  0
 18 19  1  0
 19 20  1  0
 20 21  1  0
 21 22  1  0
 21 23  2  0
 23 24  1  0
 24 25  2  0
 25 26  1  0
 26 27  2  0
 27 28  1  0
 28 29  2  0
 19 30  1  0
 30 31  1  0
 14 32  1  0
 32 33  2  0
 33 34  1  0
 34 35  2  0
 34 36  1  0
  8 37  2  0
 37 38  1  0
 37  3  1  0
 33 11  1  0
 31 16  1  0
 29 20  1  0
 29 24  1  0
  1 39  1  0
  1 40  1  0
  1 41  1  0
  4 42  1  0
  5 43  1  0
  7 44  1  0
 12 45  1  0
 13 46  1  0
 15 47  1  0
 15 48  1  0
 17 49  1  0
 17 50  1  0
 18 51  1  0
 18 52  1  0
 19 53  1  0
 22 54  1  0
 25 55  1  0
 26 56  1  0
 27 57  1  0
 28 58  1  0
 30 59  1  0
 30 60  1  0
 31 61  1  0
 31 62  1  0
 32 63  1  0
 36 64  1  0
M  END
$$$$
