
     RDKit          3D

 67 72  0  0  0  0  0  0  0  0999 V2000
    7.3124    1.7555   -3.2671 C   0  0  0  0  0  0  0  0  0  0  0  0
    5.8418    2.3063   -2.4422 S   0  0  0  0  0  0  0  0  0  0  0  0
    6.2229    3.2816   -1.4375 O   0  0  0  0  0  0  0  0  0  0  0  0
    4.8528    2.6278   -3.4534 O   0  0  0  0  0  0  0  0  0  0  0  0
    5.2847    0.8541   -1.5846 C   0  0  0  0  0  0  0  0  0  0  0  0
    5.8263    0.5484   -0.3359 C   0  0  0  0  0  0  0  0  0  0  0  0
    5.3629   -0.5718    0.3578 C   0  0  0  0  0  0  0  0  0  0  0  0
    4.3454   -1.3839   -0.1751 C   0  0  0  0  0  0  0  0  0  0  0  0
    3.8272   -2.5324    0.5887 C   0  0  0  0  0  0  0  0  0  0  0  0
    4.6871   -3.6110    0.8627 C   0  0  0  0  0  0  0  0  0  0  0  0
    4.2294   -4.7280    1.5527 C   0  0  0  0  0  0  0  0  0  0  0  0
    2.9107   -4.7438    1.9559 C   0  0  0  0  0  0  0  0  0  0  0  0
    2.0451   -3.7373    1.7205 N   0  0  0  0  0  0  0  0  0  0  0  0
    2.4981   -2.6365    1.0532 C   0  0  0  0  0  0  0  0  0  0  0  0
    1.4635   -1.5936    0.8700 C   0  0  0  0  0  0  0  0  0  0  0  0
    0.1908   -1.9353    0.3797 C   0  0  0  0  0  0  0  0  0  0  0  0
   -0.7964   -0.9656    0.1754 C   0  0  0  0  0  0  0  0  0  0  0  0
   -0.5378    0.3809    0.4557 C   0  0  0  0  0  0  0  0  0  0  0  0
   -1.6049    1.4300    0.2284 C   0  0  0  0  0  0  0  0  0  0  0  0
   -2.7504    1.2785    1.1398 N   0  0  0  0  0  0  0  0  0  0  0  0
   -2.4236    1.6370    2.5368 C   0  0  0  0  0  0  0  0  0  0  0  0
   -2.7648    3.0942    2.8851 C   0  0  0  0  0  0  0  0  0  0  0  0
   -4.1648    3.3763    2.7751 O   0  0  0  0  0  0  0  0  0  0  0  0
   -4.8358    2.5448    1.8096 C   0  0  0  0  0  0  0  0  0  0  0  0
   -3.9111    2.0804    0.6615 C   0  0  0  0  0  0  0  0  0  0  0  0
   -4.6482    1.2946   -0.3215 N   0  0  0  0  0  0  0  0  0  0  0  0
   -5.0842    1.7786   -1.5240 C   0  0  0  0  0  0  0  0  0  0  0  0
   -4.8539    2.9966   -1.9691 O   0  0  0  0  0  0  0  0  0  0  0  0
   -5.7824    0.9157   -2.2092 N   0  0  0  0  0  0  0  0  0  0  0  0
   -5.8153   -0.2026   -1.4108 C   0  0  0  0  0  0  0  0  0  0  0  0
   -6.4361   -1.4394   -1.6433 C   0  0  0  0  0  0  0  0  0  0  0  0
   -6.3396   -2.4396   -0.6691 C   0  0  0  0  0  0  0  0  0  0  0  0
   -5.6376   -2.2147    0.5151 C   0  0  0  0  0  0  0  0  0  0  0  0
   -5.0138   -0.9881    0.7682 C   0  0  0  0  0  0  0  0  0  0  0  0
   -5.1174    0.0015   -0.2180 C   0  0  0  0  0  0  0  0  0  0  0  0
    0.7179    0.7329    0.9627 C   0  0  0  0  0  0  0  0  0  0  0  0
    1.6957   -0.2437    1.1820 C   0  0  0  0  0  0  0  0  0  0  0  0
    3.8221   -1.0573   -1.4381 C   0  0  0  0  0  0  0  0  0  0  0  0
    4.2802    0.0603   -2.1398 C   0  0  0  0  0  0  0  0  0  0  0  0
    7.7166    2.5954   -3.8360 H   0  0  0  0  0  0  0  0  0  0  0  0
    8.0392    1.4307   -2.5210 H   0  0  0  0  0  0  0  0  0  0  0  0
    7.0564    0.9396   -3.9456 H   0  0  0  0  0  0  0  0  0  0  0  0
    6.5878    1.1823    0.1125 H   0  0  0  0  0  0  0  0  0  0  0  0
    5.7779   -0.7934    1.3396 H   0  0  0  0  0  0  0  0  0  0  0  0
    5.7189   -3.5890    0.5200 H   0  0  0  0  0  0  0  0  0  0  0  0
    4.8842   -5.5667    1.7609 H   0  0  0  0  0  0  0  0  0  0  0  0
    2.4970   -5.5927    2.4936 H   0  0  0  0  0  0  0  0  0  0  0  0
   -0.0398   -2.9751    0.1558 H   0  0  0  0  0  0  0  0  0  0  0  0
   -1.7726   -1.2687   -0.1998 H   0  0  0  0  0  0  0  0  0  0  0  0
   -1.9272    1.3179   -0.8151 H   0  0  0  0  0  0  0  0  0  0  0  0
   -1.1742    2.4365    0.3030 H   0  0  0  0  0  0  0  0  0  0  0  0
   -1.3780    1.4294    2.7871 H   0  0  0  0  0  0  0  0  0  0  0  0
   -3.0212    0.9789    3.1824 H   0  0  0  0  0  0  0  0  0  0  0  0
   -2.2260    3.7892    2.2328 H   0  0  0  0  0  0  0  0  0  0  0  0
   -2.4623    3.3163    3.9120 H   0  0  0  0  0  0  0  0  0  0  0  0
   -5.2693    1.6928    2.3464 H   0  0  0  0  0  0  0  0  0  0  0  0
   -5.6769    3.1259    1.4136 H   0  0  0  0  0  0  0  0  0  0  0  0
   -3.5373    2.9863    0.1650 H   0  0  0  0  0  0  0  0  0  0  0  0
   -5.3162    2.9760   -2.8279 H   0  0  0  0  0  0  0  0  0  0  0  0
   -6.9816   -1.6076   -2.5653 H   0  0  0  0  0  0  0  0  0  0  0  0
   -6.8184   -3.4007   -0.8394 H   0  0  0  0  0  0  0  0  0  0  0  0
   -5.5699   -3.0082    1.2573 H   0  0  0  0  0  0  0  0  0  0  0  0
   -4.4631   -0.8255    1.6887 H   0  0  0  0  0  0  0  0  0  0  0  0
    0.9463    1.7682    1.2011 H   0  0  0  0  0  0  0  0  0  0  0  0
    2.6492    0.0669    1.6026 H   0  0  0  0  0  0  0  0  0  0  0  0
    3.0288   -1.6640   -1.8728 H   0  0  0  0  0  0  0  0  0  0  0  0
    3.8328    0.3079   -3.0995 H   0  0  0  0  0  0  0  0  0  0  0  0
  1  2  1  0
  2  3  2  0
  2  4  2  0
  2  5  1  0
  5  6  2  0
  6  7  1  0
  7  8  2  0
  8  9  1  0
  9 10  2  0
 10 11  1  0
 11 12  2  0
 12 13  1  0
 13 14  2  0
 14 15  1  0
 15 16  2  0
 16 17  1  0
 17 18  2  0
 18 19  1  0
 19 20  1  0
 20 21  1  0
 21 22  1  0
 22 23  1  0
 23 24  1  0
 24 25  1  0
 25 26  1  0
 26 27  1  0
 27 28  1  0
 27 29  2  0
 29 30  1  0
 30 31  2  0
 31 32  1  0
 32 33  2  0
 33 34  1  0
 34 35  2  0
 18 36  1  0
 36 37  2  0
  8 38  1  0
 38 39  2  0
 39  5  1  0
 14  9  1  0
 37 15  1  0
 25 20  1  0
 35 26  1  0
 35 30  1  0
  1 40  1  0
  1 41  1  0
  1 42  1  0
  6 43  1  0
  7 44  1  0
 10 45  1  0
 11 46  1  0
 12 47  1  0
 16 48  1  0
 17 49  1  0
 19 50  1  0
 19 51  1  0
 21 52  1  0
 21 53  1  0
 22 54  1  0
 22 55  1  0
 24 56  1  0
 24 57  1  0
 25 58  1  0
 28 59  1  0
 31 60  1  0
 32 61  1  0
 33 62  1  0
 34 63  1  0
 36 64  1  0
 37 65  1  0
 38 66  1  0
 39 67  1  0
M  END
$$$$
