
     RDKit          3D

 61 65  0  0  0  0  0  0  0  0999 V2000
   -5.9615   -3.9977    0.4003 C   0  0  0  0  0  0  0  0  0  0  0  0
   -5.2975   -2.8972   -0.4079 C   0  0  0  0  0  0  0  0  0  0  0  0
   -4.1533   -2.3544    0.3511 N   0  0  0  0  0  0  0  0  0  0  0  0
   -4.3681   -1.0578    0.3731 C   0  0  0  0  0  0  0  0  0  0  0  0
   -3.4403   -0.3097    1.2412 C   0  0  0  0  0  0  0  0  0  0  0  0
   -3.5670    1.0949    1.7269 C   0  0  0  0  0  0  0  0  0  0  0  0
   -2.5184    0.7481    0.6822 C   0  0  0  0  0  0  0  0  0  0  0  0
   -1.0553    0.7497    1.0635 C   0  0  0  0  0  0  0  0  0  0  0  0
   -0.2705   -0.4131    0.9539 C   0  0  0  0  0  0  0  0  0  0  0  0
    1.0843   -0.4126    1.2956 C   0  0  0  0  0  0  0  0  0  0  0  0
    1.6822    0.7709    1.7310 C   0  0  0  0  0  0  0  0  0  0  0  0
    3.1081    0.7955    2.1132 C   0  0  0  0  0  0  0  0  0  0  0  0
    3.3711    0.9840    3.2981 O   0  0  0  0  0  0  0  0  0  0  0  0
    4.0749    0.6245    1.1239 N   0  0  0  0  0  0  0  0  0  0  0  0
    5.4507    0.3793    1.5591 C   0  0  0  0  0  0  0  0  0  0  0  0
    6.5007    0.8682    0.5425 C   0  0  0  0  0  0  0  0  0  0  0  0
    6.2649    0.4676   -0.8670 N   0  0  0  0  0  0  0  0  0  0  0  0
    6.4891   -0.9858   -1.0750 C   0  0  0  0  0  0  0  0  0  0  0  0
    7.9837   -1.3163   -1.0443 C   0  0  0  0  0  0  0  0  0  0  0  0
    8.7881   -0.3873   -1.6451 N   0  0  0  0  0  0  0  0  0  0  0  0
    8.4413   -2.3495   -0.5691 O   0  0  0  0  0  0  0  0  0  0  0  0
    4.8835    0.8453   -1.2337 C   0  0  0  0  0  0  0  0  0  0  0  0
    3.7841    0.3310   -0.2831 C   0  0  0  0  0  0  0  0  0  0  0  0
    0.9274    1.9358    1.8638 C   0  0  0  0  0  0  0  0  0  0  0  0
   -0.4276    1.9215    1.5226 C   0  0  0  0  0  0  0  0  0  0  0  0
   -5.5804   -0.6033   -0.4012 C   0  0  0  0  0  0  0  0  0  0  0  0
   -6.0062    0.5714   -0.9043 C   0  0  0  0  0  0  0  0  0  0  0  0
   -5.4086    1.8992   -0.9347 C   0  0  0  0  0  0  0  0  0  0  0  0
   -6.2525    2.7256   -1.5794 C   0  0  0  0  0  0  0  0  0  0  0  0
   -7.4158    1.9886   -2.0157 C   0  0  0  0  0  0  0  0  0  0  0  0
   -7.2655    0.7176   -1.6329 C   0  0  0  0  0  0  0  0  0  0  0  0
   -8.1264   -0.2759   -1.8935 F   0  0  0  0  0  0  0  0  0  0  0  0
   -6.2249   -1.8136   -0.6346 N   0  0  0  0  0  0  0  0  0  0  0  0
   -5.2540   -4.8070    0.6085 H   0  0  0  0  0  0  0  0  0  0  0  0
   -6.3271   -3.6223    1.3630 H   0  0  0  0  0  0  0  0  0  0  0  0
   -6.8159   -4.4178   -0.1402 H   0  0  0  0  0  0  0  0  0  0  0  0
   -4.9367   -3.2950   -1.3637 H   0  0  0  0  0  0  0  0  0  0  0  0
   -3.0099   -0.9708    1.9966 H   0  0  0  0  0  0  0  0  0  0  0  0
   -4.4575    1.6518    1.4849 H   0  0  0  0  0  0  0  0  0  0  0  0
   -3.2341    1.2974    2.7422 H   0  0  0  0  0  0  0  0  0  0  0  0
   -2.7003    1.0389   -0.3469 H   0  0  0  0  0  0  0  0  0  0  0  0
   -0.7298   -1.3396    0.6102 H   0  0  0  0  0  0  0  0  0  0  0  0
    1.6599   -1.3318    1.2308 H   0  0  0  0  0  0  0  0  0  0  0  0
    5.5468   -0.7004    1.7229 H   0  0  0  0  0  0  0  0  0  0  0  0
    5.6347    0.8652    2.5237 H   0  0  0  0  0  0  0  0  0  0  0  0
    6.5146    1.9665    0.5682 H   0  0  0  0  0  0  0  0  0  0  0  0
    7.4996    0.5591    0.8717 H   0  0  0  0  0  0  0  0  0  0  0  0
    5.9729   -1.6038   -0.3337 H   0  0  0  0  0  0  0  0  0  0  0  0
    6.1367   -1.2836   -2.0702 H   0  0  0  0  0  0  0  0  0  0  0  0
    8.4095    0.5498   -1.7390 H   0  0  0  0  0  0  0  0  0  0  0  0
    9.7856   -0.4990   -1.5304 H   0  0  0  0  0  0  0  0  0  0  0  0
    4.8351    1.9422   -1.2549 H   0  0  0  0  0  0  0  0  0  0  0  0
    4.6640    0.5235   -2.2588 H   0  0  0  0  0  0  0  0  0  0  0  0
    3.6790   -0.7565   -0.3731 H   0  0  0  0  0  0  0  0  0  0  0  0
    2.8319    0.7840   -0.5761 H   0  0  0  0  0  0  0  0  0  0  0  0
    1.3890    2.8474    2.2353 H   0  0  0  0  0  0  0  0  0  0  0  0
   -1.0075    2.8366    1.6253 H   0  0  0  0  0  0  0  0  0  0  0  0
   -4.4503    2.2083   -0.5677 H   0  0  0  0  0  0  0  0  0  0  0  0
   -6.0880    3.7730   -1.7836 H   0  0  0  0  0  0  0  0  0  0  0  0
   -8.2421    2.3944   -2.5754 H   0  0  0  0  0  0  0  0  0  0  0  0
   -6.8004   -1.8548   -1.4700 H   0  0  0  0  0  0  0  0  0  0  0  0
  1  2  1  0
  2  3  1  0
  3  4  2  0
  4  5  1  0
  5  6  1  0
  6  7  1  0
  7  8  1  0
  8  9  2  0
  9 10  1  0
 10 11  2  0
 11 12  1  0
 12 13  2  0
 12 14  1  0
 14 15  1  0
 15 16  1  0
 16 17  1  0
 17 18  1  0
 18 19  1  0
 19 20  1  0
 19 21  2  0
 17 22  1  0
 22 23  1  0
 11 24  1  0
 24 25  2  0
  4 26  1  0
 26 27  2  3
 27 28  1  0
 28 29  2  0
 29 30  1  0
 30 31  2  0
 31 32  1  0
 26 33  1  0
 33  2  1  0
  7  5  1  0
 25  8  1  0
 31 27  1  0
 23 14  1  0
  1 34  1  0
  1 35  1  0
  1 36  1  0
  2 37  1  0
  5 38  1  0
  6 39  1  0
  6 40  1  0
  7 41  1  0
  9 42  1  0
 10 43  1  0
 15 44  1  0
 15 45  1  0
 16 46  1  0
 16 47  1  0
 18 48  1  0
 18 49  1  0
 20 50  1  0
 20 51  1  0
 22 52  1  0
 22 53  1  0
 23 54  1  0
 23 55  1  0
 24 56  1  0
 25 57  1  0
 28 58  1  0
 29 59  1  0
 30 60  1  0
 33 61  1  0
M  END
$$$$
