
     RDKit          3D

 60 64  0  0  0  0  0  0  0  0999 V2000
    8.4731    2.6688   -0.3341 C   0  0  0  0  0  0  0  0  0  0  0  0
    7.1133    3.0507    0.2415 C   0  0  0  0  0  0  0  0  0  0  0  0
    6.5318    1.8837    0.9287 N   0  0  0  0  0  0  0  0  0  0  0  0
    5.5747    1.5248    0.1356 C   0  0  0  0  0  0  0  0  0  0  0  0
    4.7374    0.3505    0.4179 C   0  0  0  0  0  0  0  0  0  0  0  0
    4.3418   -0.0027    1.8312 C   0  0  0  0  0  0  0  0  0  0  0  0
    3.3095    0.5598    0.8906 C   0  0  0  0  0  0  0  0  0  0  0  0
    2.1918   -0.2809    0.3004 C   0  0  0  0  0  0  0  0  0  0  0  0
    2.2600   -1.6805    0.1607 C   0  0  0  0  0  0  0  0  0  0  0  0
    1.2098   -2.4185   -0.3962 C   0  0  0  0  0  0  0  0  0  0  0  0
    0.0515   -1.7660   -0.8134 C   0  0  0  0  0  0  0  0  0  0  0  0
   -1.0439   -2.5622   -1.4095 C   0  0  0  0  0  0  0  0  0  0  0  0
   -0.7780   -3.2768   -2.3718 O   0  0  0  0  0  0  0  0  0  0  0  0
   -2.3165   -2.4668   -0.8566 N   0  0  0  0  0  0  0  0  0  0  0  0
   -2.6084   -1.8829    0.4588 C   0  0  0  0  0  0  0  0  0  0  0  0
   -3.8609   -2.4821    1.1144 C   0  0  0  0  0  0  0  0  0  0  0  0
   -5.0489   -2.4028    0.2232 N   0  0  0  0  0  0  0  0  0  0  0  0
   -6.3332   -1.3993    0.6772 S   0  0  0  0  0  0  0  0  0  0  0  0
   -7.3922   -1.5557   -0.2967 O   0  0  0  0  0  0  0  0  0  0  0  0
   -6.5746   -1.5902    2.0914 O   0  0  0  0  0  0  0  0  0  0  0  0
   -5.6609    0.2420    0.4753 C   0  0  0  0  0  0  0  0  0  0  0  0
   -5.0369    0.8716    1.5603 C   0  0  0  0  0  0  0  0  0  0  0  0
   -4.5224    2.1591    1.4039 C   0  0  0  0  0  0  0  0  0  0  0  0
   -4.6526    2.8075    0.1790 C   0  0  0  0  0  0  0  0  0  0  0  0
   -4.1504    4.0395    0.0313 F   0  0  0  0  0  0  0  0  0  0  0  0
   -5.2995    2.1991   -0.8926 C   0  0  0  0  0  0  0  0  0  0  0  0
   -5.8175    0.9118   -0.7445 C   0  0  0  0  0  0  0  0  0  0  0  0
   -4.7686   -2.5372   -1.2347 C   0  0  0  0  0  0  0  0  0  0  0  0
   -3.4111   -3.1978   -1.4999 C   0  0  0  0  0  0  0  0  0  0  0  0
   -0.0417   -0.3782   -0.7147 C   0  0  0  0  0  0  0  0  0  0  0  0
    1.0169    0.3476   -0.1582 C   0  0  0  0  0  0  0  0  0  0  0  0
    5.3762    2.3404   -1.0988 C   0  0  0  0  0  0  0  0  0  0  0  0
    6.2089    3.5119   -0.8225 N   0  0  0  0  0  0  0  0  0  0  0  0
    9.1447    2.3314    0.4632 H   0  0  0  0  0  0  0  0  0  0  0  0
    8.9426    3.5235   -0.8330 H   0  0  0  0  0  0  0  0  0  0  0  0
    8.3925    1.8515   -1.0598 H   0  0  0  0  0  0  0  0  0  0  0  0
    7.2513    3.8590    0.9692 H   0  0  0  0  0  0  0  0  0  0  0  0
    4.9399   -0.4884   -0.2408 H   0  0  0  0  0  0  0  0  0  0  0  0
    4.6973    0.6350    2.6353 H   0  0  0  0  0  0  0  0  0  0  0  0
    4.3158   -1.0495    2.1062 H   0  0  0  0  0  0  0  0  0  0  0  0
    3.0284    1.5887    1.1207 H   0  0  0  0  0  0  0  0  0  0  0  0
    3.1502   -2.2190    0.4788 H   0  0  0  0  0  0  0  0  0  0  0  0
    1.3003   -3.4970   -0.5054 H   0  0  0  0  0  0  0  0  0  0  0  0
   -1.7490   -2.0188    1.1228 H   0  0  0  0  0  0  0  0  0  0  0  0
   -2.7516   -0.8091    0.3015 H   0  0  0  0  0  0  0  0  0  0  0  0
   -3.6920   -3.5422    1.3415 H   0  0  0  0  0  0  0  0  0  0  0  0
   -4.0417   -1.9876    2.0733 H   0  0  0  0  0  0  0  0  0  0  0  0
   -4.9567    0.3733    2.5243 H   0  0  0  0  0  0  0  0  0  0  0  0
   -4.0317    2.6659    2.2295 H   0  0  0  0  0  0  0  0  0  0  0  0
   -5.4037    2.7351   -1.8314 H   0  0  0  0  0  0  0  0  0  0  0  0
   -6.3415    0.4431   -1.5750 H   0  0  0  0  0  0  0  0  0  0  0  0
   -4.7710   -1.5500   -1.7067 H   0  0  0  0  0  0  0  0  0  0  0  0
   -5.5590   -3.1424   -1.6910 H   0  0  0  0  0  0  0  0  0  0  0  0
   -3.2330   -3.2615   -2.5793 H   0  0  0  0  0  0  0  0  0  0  0  0
   -3.3955   -4.2198   -1.1016 H   0  0  0  0  0  0  0  0  0  0  0  0
   -0.9205    0.1452   -1.0816 H   0  0  0  0  0  0  0  0  0  0  0  0
    0.9256    1.4306   -0.0894 H   0  0  0  0  0  0  0  0  0  0  0  0
    4.3256    2.6062   -1.2388 H   0  0  0  0  0  0  0  0  0  0  0  0
    5.7423    1.7877   -1.9685 H   0  0  0  0  0  0  0  0  0  0  0  0
    5.6119    4.2203   -0.3959 H   0  0  0  0  0  0  0  0  0  0  0  0
  1  2  1  0
  2  3  1  0
  3  4  2  0
  4  5  1  0
  5  6  1  0
  6  7  1  0
  7  8  1  0
  8  9  2  0
  9 10  1  0
 10 11  2  0
 11 12  1  0
 12 13  2  0
 12 14  1  0
 14 15  1  0
 15 16  1  0
 16 17  1  0
 17 18  1  0
 18 19  2  0
 18 20  2  0
 18 21  1  0
 21 22  2  0
 22 23  1  0
 23 24  2  0
 24 25  1  0
 24 26  1  0
 26 27  2  0
 17 28  1  0
 28 29  1  0
 11 30  1  0
 30 31  2  0
  4 32  1  0
 32 33  1  0
 33  2  1  0
  7  5  1  0
 31  8  1  0
 29 14  1  0
 27 21  1  0
  1 34  1  0
  1 35  1  0
  1 36  1  0
  2 37  1  0
  5 38  1  0
  6 39  1  0
  6 40  1  0
  7 41  1  0
  9 42  1  0
 10 43  1  0
 15 44  1  0
 15 45  1  0
 16 46  1  0
 16 47  1  0
 22 48  1  0
 23 49  1  0
 26 50  1  0
 27 51  1  0
 28 52  1  0
 28 53  1  0
 29 54  1  0
 29 55  1  0
 30 56  1  0
 31 57  1  0
 32 58  1  0
 32 59  1  0
 33 60  1  0
M  END
$$$$
