
     RDKit          3D

 49 52  0  0  0  0  0  0  0  0999 V2000
    8.1486    0.7845    0.4626 N   0  0  0  0  0  0  0  0  0  0  0  0
    6.8172    0.4672    0.4059 C   0  0  0  0  0  0  0  0  0  0  0  0
    6.0242    1.0321    1.1516 O   0  0  0  0  0  0  0  0  0  0  0  0
    6.4724   -0.6034   -0.6394 C   0  0  0  0  0  0  0  0  0  0  0  0
    5.0538   -0.9781   -0.7218 N   0  0  0  0  0  0  0  0  0  0  0  0
    4.1850    0.0866   -1.2361 C   0  0  0  0  0  0  0  0  0  0  0  0
    2.6993   -0.3381   -1.2272 C   0  0  0  0  0  0  0  0  0  0  0  0
    2.2131   -0.6406    0.1368 N   0  0  0  0  0  0  0  0  0  0  0  0
    0.8862   -0.4236    0.5017 C   0  0  0  0  0  0  0  0  0  0  0  0
   -0.2082   -0.2967   -0.2896 C   0  0  0  0  0  0  0  0  0  0  0  0
   -1.3177   -0.0607    0.5312 C   0  0  0  0  0  0  0  0  0  0  0  0
   -2.6392    0.1548    0.3586 O   0  0  0  0  0  0  0  0  0  0  0  0
   -3.1461    0.3700    1.6146 C   0  0  0  0  0  0  0  0  0  0  0  0
   -4.5315    0.6719    1.8848 N   0  0  0  0  0  0  0  0  0  0  0  0
   -5.2161    1.8474    0.8894 S   0  0  0  0  0  0  0  0  0  0  0  0
   -4.1790    2.6532    0.2795 O   0  0  0  0  0  0  0  0  0  0  0  0
   -6.2618    2.4877    1.6582 O   0  0  0  0  0  0  0  0  0  0  0  0
   -5.9846    0.8812   -0.3680 C   0  0  0  0  0  0  0  0  0  0  0  0
   -5.5030    0.9217   -1.6828 C   0  0  0  0  0  0  0  0  0  0  0  0
   -6.1576    0.1843   -2.6718 C   0  0  0  0  0  0  0  0  0  0  0  0
   -7.2807   -0.5702   -2.3384 C   0  0  0  0  0  0  0  0  0  0  0  0
   -7.9153   -1.2620   -3.2940 F   0  0  0  0  0  0  0  0  0  0  0  0
   -7.7580   -0.6126   -1.0339 C   0  0  0  0  0  0  0  0  0  0  0  0
   -7.1017    0.1169   -0.0482 C   0  0  0  0  0  0  0  0  0  0  0  0
   -7.5614    0.0496    1.2087 F   0  0  0  0  0  0  0  0  0  0  0  0
   -2.1615    0.2308    2.5797 C   0  0  0  0  0  0  0  0  0  0  0  0
   -0.9951   -0.0278    1.8550 C   0  0  0  0  0  0  0  0  0  0  0  0
    0.4140   -0.2608    1.9733 C   0  0  0  0  0  0  0  0  0  0  0  0
    1.0691   -0.3026    2.9975 O   0  0  0  0  0  0  0  0  0  0  0  0
    3.2757   -0.8945    1.1360 C   0  0  0  0  0  0  0  0  0  0  0  0
    4.5143   -1.5864    0.5087 C   0  0  0  0  0  0  0  0  0  0  0  0
    8.8582    0.1939    0.0523 H   0  0  0  0  0  0  0  0  0  0  0  0
    8.4305    1.4309    1.1880 H   0  0  0  0  0  0  0  0  0  0  0  0
    7.0639   -1.5001   -0.4120 H   0  0  0  0  0  0  0  0  0  0  0  0
    6.8125   -0.2446   -1.6190 H   0  0  0  0  0  0  0  0  0  0  0  0
    4.4701    0.3301   -2.2633 H   0  0  0  0  0  0  0  0  0  0  0  0
    4.2834    1.0032   -0.6471 H   0  0  0  0  0  0  0  0  0  0  0  0
    2.5553   -1.2226   -1.8589 H   0  0  0  0  0  0  0  0  0  0  0  0
    2.1156    0.4804   -1.6661 H   0  0  0  0  0  0  0  0  0  0  0  0
   -0.2434   -0.3590   -1.3640 H   0  0  0  0  0  0  0  0  0  0  0  0
   -4.8211    0.7834    2.8556 H   0  0  0  0  0  0  0  0  0  0  0  0
   -4.6347    1.5220   -1.9402 H   0  0  0  0  0  0  0  0  0  0  0  0
   -5.8074    0.2016   -3.7002 H   0  0  0  0  0  0  0  0  0  0  0  0
   -8.6302   -1.2087   -0.7888 H   0  0  0  0  0  0  0  0  0  0  0  0
   -2.2724    0.3348    3.6481 H   0  0  0  0  0  0  0  0  0  0  0  0
    2.9018   -1.5666    1.9168 H   0  0  0  0  0  0  0  0  0  0  0  0
    3.5638    0.0523    1.6023 H   0  0  0  0  0  0  0  0  0  0  0  0
    4.2161   -2.6064    0.2304 H   0  0  0  0  0  0  0  0  0  0  0  0
    5.2834   -1.7064    1.2833 H   0  0  0  0  0  0  0  0  0  0  0  0
  1  2  1  0
  2  3  2  0
  2  4  1  0
  4  5  1  0
  5  6  1  0
  6  7  1  0
  7  8  1  0
  8  9  1  0
  9 10  2  0
 10 11  1  0
 11 12  1  0
 12 13  1  0
 13 14  1  0
 14 15  1  0
 15 16  2  0
 15 17  2  0
 15 18  1  0
 18 19  2  0
 19 20  1  0
 20 21  2  0
 21 22  1  0
 21 23  1  0
 23 24  2  0
 24 25  1  0
 13 26  2  0
 26 27  1  0
 27 28  1  0
 28 29  2  0
  8 30  1  0
 30 31  1  0
 31  5  1  0
 28  9  1  0
 27 11  2  0
 24 18  1  0
  1 32  1  0
  1 33  1  0
  4 34  1  0
  4 35  1  0
  6 36  1  0
  6 37  1  0
  7 38  1  0
  7 39  1  0
 10 40  1  0
 14 41  1  0
 19 42  1  0
 20 43  1  0
 23 44  1  0
 26 45  1  0
 30 46  1  0
 30 47  1  0
 31 48  1  0
 31 49  1  0
M  END
$$$$
