
     RDKit          3D

 48 51  0  0  0  0  0  0  0  0999 V2000
   -2.8317   -2.4615    0.7151 C   0  0  0  0  0  0  0  0  0  0  0  0
   -2.5593   -1.0488    0.5280 N   0  0  0  0  0  0  0  0  0  0  0  0
   -1.9331   -0.3637    1.6502 C   0  0  0  0  0  0  0  0  0  0  0  0
   -3.1723   -0.3992   -0.5449 C   0  0  0  0  0  0  0  0  0  0  0  0
   -4.0164   -0.9345   -1.2621 O   0  0  0  0  0  0  0  0  0  0  0  0
   -2.8602    1.0304   -0.7899 C   0  0  0  0  0  0  0  0  0  0  0  0
   -3.8690    1.9940   -0.5654 C   0  0  0  0  0  0  0  0  0  0  0  0
   -5.2561    1.6052   -0.1285 C   0  0  0  0  0  0  0  0  0  0  0  0
   -5.2031    0.9676    1.1403 O   0  0  0  0  0  0  0  0  0  0  0  0
   -3.5638    3.3493   -0.7720 C   0  0  0  0  0  0  0  0  0  0  0  0
   -2.2954    3.7389   -1.2022 C   0  0  0  0  0  0  0  0  0  0  0  0
   -1.3123    2.7795   -1.4410 C   0  0  0  0  0  0  0  0  0  0  0  0
   -1.5839    1.4175   -1.2423 C   0  0  0  0  0  0  0  0  0  0  0  0
   -0.5308    0.4495   -1.5231 C   0  0  0  0  0  0  0  0  0  0  0  0
   -0.6544   -0.4398   -2.5182 N   0  0  0  0  0  0  0  0  0  0  0  0
    0.4771   -1.1565   -2.4628 N   0  0  0  0  0  0  0  0  0  0  0  0
    1.3514   -0.7545   -1.4908 C   0  0  0  0  0  0  0  0  0  0  0  0
    2.6168   -1.2278   -1.1228 C   0  0  0  0  0  0  0  0  0  0  0  0
    3.2819   -0.5881   -0.0588 C   0  0  0  0  0  0  0  0  0  0  0  0
    4.6148   -1.0449    0.3668 C   0  0  0  0  0  0  0  0  0  0  0  0
    5.7041   -0.1667    0.4004 C   0  0  0  0  0  0  0  0  0  0  0  0
    6.9407   -0.6439    0.8063 C   0  0  0  0  0  0  0  0  0  0  0  0
    7.1668   -1.9198    1.1806 N   0  0  0  0  0  0  0  0  0  0  0  0
    6.1088   -2.7553    1.1456 C   0  0  0  0  0  0  0  0  0  0  0  0
    4.8361   -2.3724    0.7513 C   0  0  0  0  0  0  0  0  0  0  0  0
    2.6559    0.4902    0.5898 C   0  0  0  0  0  0  0  0  0  0  0  0
    1.3856    0.9477    0.2081 C   0  0  0  0  0  0  0  0  0  0  0  0
    0.7243    0.3096   -0.8565 C   0  0  0  0  0  0  0  0  0  0  0  0
   -3.1349   -2.9377   -0.2215 H   0  0  0  0  0  0  0  0  0  0  0  0
   -3.6372   -2.5699    1.4475 H   0  0  0  0  0  0  0  0  0  0  0  0
   -1.9285   -2.9565    1.0836 H   0  0  0  0  0  0  0  0  0  0  0  0
   -0.9653   -0.8314    1.8523 H   0  0  0  0  0  0  0  0  0  0  0  0
   -2.5789   -0.4760    2.5268 H   0  0  0  0  0  0  0  0  0  0  0  0
   -1.7860    0.7020    1.4733 H   0  0  0  0  0  0  0  0  0  0  0  0
   -5.7415    0.9564   -0.8658 H   0  0  0  0  0  0  0  0  0  0  0  0
   -5.8917    2.4902   -0.0179 H   0  0  0  0  0  0  0  0  0  0  0  0
   -5.3261    0.0168    0.9615 H   0  0  0  0  0  0  0  0  0  0  0  0
   -4.3196    4.1140   -0.6010 H   0  0  0  0  0  0  0  0  0  0  0  0
   -2.0774    4.7918   -1.3653 H   0  0  0  0  0  0  0  0  0  0  0  0
   -0.3362    3.0977   -1.8018 H   0  0  0  0  0  0  0  0  0  0  0  0
    0.5946   -1.9128   -3.1271 H   0  0  0  0  0  0  0  0  0  0  0  0
    3.0763   -2.0571   -1.6532 H   0  0  0  0  0  0  0  0  0  0  0  0
    5.5996    0.8722    0.1042 H   0  0  0  0  0  0  0  0  0  0  0  0
    7.8081    0.0092    0.8398 H   0  0  0  0  0  0  0  0  0  0  0  0
    6.3146   -3.7761    1.4548 H   0  0  0  0  0  0  0  0  0  0  0  0
    4.0301   -3.0990    0.7577 H   0  0  0  0  0  0  0  0  0  0  0  0
    3.1543    0.9853    1.4223 H   0  0  0  0  0  0  0  0  0  0  0  0
    0.9233    1.7786    0.7332 H   0  0  0  0  0  0  0  0  0  0  0  0
  1  2  1  0
  2  3  1  0
  2  4  1  0
  4  5  2  0
  4  6  1  0
  6  7  2  0
  7  8  1  0
  8  9  1  0
  7 10  1  0
 10 11  2  0
 11 12  1  0
 12 13  2  0
 13 14  1  0
 14 15  2  0
 15 16  1  0
 16 17  1  0
 17 18  2  0
 18 19  1  0
 19 20  1  0
 20 21  2  0
 21 22  1  0
 22 23  2  0
 23 24  1  0
 24 25  2  0
 19 26  2  0
 26 27  1  0
 27 28  2  0
 13  6  1  0
 28 14  1  0
 28 17  1  0
 25 20  1  0
  1 29  1  0
  1 30  1  0
  1 31  1  0
  3 32  1  0
  3 33  1  0
  3 34  1  0
  8 35  1  0
  8 36  1  0
  9 37  1  0
 10 38  1  0
 11 39  1  0
 12 40  1  0
 16 41  1  0
 18 42  1  0
 21 43  1  0
 22 44  1  0
 24 45  1  0
 25 46  1  0
 26 47  1  0
 27 48  1  0
M  END
$$$$
