
     RDKit          3D

 55 59  0  0  0  0  0  0  0  0999 V2000
    8.6734    2.9750   -1.5147 C   0  0  0  0  0  0  0  0  0  0  0  0
    7.4850    2.6680   -0.7982 O   0  0  0  0  0  0  0  0  0  0  0  0
    7.0471    1.3780   -1.0031 C   0  0  0  0  0  0  0  0  0  0  0  0
    7.7551    0.5444   -1.7682 N   0  0  0  0  0  0  0  0  0  0  0  0
    7.2385   -0.6840   -1.8905 C   0  0  0  0  0  0  0  0  0  0  0  0
    7.9215   -1.5620   -2.6405 F   0  0  0  0  0  0  0  0  0  0  0  0
    6.0719   -1.1064   -1.3052 C   0  0  0  0  0  0  0  0  0  0  0  0
    5.4132   -0.1716   -0.5388 C   0  0  0  0  0  0  0  0  0  0  0  0
    4.1462   -0.4560    0.1637 C   0  0  0  0  0  0  0  0  0  0  0  0
    3.8902    0.1102    1.4289 C   0  0  0  0  0  0  0  0  0  0  0  0
    2.6981   -0.1421    2.1144 C   0  0  0  0  0  0  0  0  0  0  0  0
    1.7243   -0.9511    1.5294 C   0  0  0  0  0  0  0  0  0  0  0  0
    0.4680   -1.2118    2.2669 C   0  0  0  0  0  0  0  0  0  0  0  0
    0.5598   -1.6379    3.4156 O   0  0  0  0  0  0  0  0  0  0  0  0
   -0.7560   -0.9770    1.6209 N   0  0  0  0  0  0  0  0  0  0  0  0
   -1.9525   -1.2791    2.4049 C   0  0  0  0  0  0  0  0  0  0  0  0
   -3.1828   -1.4870    1.5292 C   0  0  0  0  0  0  0  0  0  0  0  0
   -3.3668   -0.3005    0.5776 C   0  0  0  0  0  0  0  0  0  0  0  0
   -4.5660   -0.4017   -0.2414 N   0  0  0  0  0  0  0  0  0  0  0  0
   -4.8649   -1.3873   -1.1405 C   0  0  0  0  0  0  0  0  0  0  0  0
   -4.1007   -2.4273   -1.4018 O   0  0  0  0  0  0  0  0  0  0  0  0
   -6.0053   -1.2064   -1.7477 N   0  0  0  0  0  0  0  0  0  0  0  0
   -6.4855   -0.0297   -1.2273 C   0  0  0  0  0  0  0  0  0  0  0  0
   -7.6762    0.6504   -1.5261 C   0  0  0  0  0  0  0  0  0  0  0  0
   -7.9540    1.8517   -0.8636 C   0  0  0  0  0  0  0  0  0  0  0  0
   -7.0637    2.3670    0.0795 C   0  0  0  0  0  0  0  0  0  0  0  0
   -5.8707    1.7044    0.3929 C   0  0  0  0  0  0  0  0  0  0  0  0
   -5.6078    0.5030   -0.2797 C   0  0  0  0  0  0  0  0  0  0  0  0
   -2.1033   -0.0919   -0.2643 C   0  0  0  0  0  0  0  0  0  0  0  0
   -0.8925    0.1031    0.6386 C   0  0  0  0  0  0  0  0  0  0  0  0
    1.9548   -1.5399    0.2832 C   0  0  0  0  0  0  0  0  0  0  0  0
    3.1538   -1.2872   -0.3934 C   0  0  0  0  0  0  0  0  0  0  0  0
    5.9019    1.0761   -0.3777 N   0  0  0  0  0  0  0  0  0  0  0  0
    8.5202    2.8840   -2.5973 H   0  0  0  0  0  0  0  0  0  0  0  0
    8.9298    4.0187   -1.3021 H   0  0  0  0  0  0  0  0  0  0  0  0
    9.5128    2.3525   -1.1818 H   0  0  0  0  0  0  0  0  0  0  0  0
    5.7263   -2.1205   -1.4391 H   0  0  0  0  0  0  0  0  0  0  0  0
    4.6353    0.7554    1.8954 H   0  0  0  0  0  0  0  0  0  0  0  0
    2.5340    0.2921    3.0985 H   0  0  0  0  0  0  0  0  0  0  0  0
   -2.1104   -0.4474    3.1027 H   0  0  0  0  0  0  0  0  0  0  0  0
   -1.7826   -2.1800    3.0055 H   0  0  0  0  0  0  0  0  0  0  0  0
   -3.0596   -2.4183    0.9639 H   0  0  0  0  0  0  0  0  0  0  0  0
   -4.0698   -1.6146    2.1606 H   0  0  0  0  0  0  0  0  0  0  0  0
   -3.4975    0.5944    1.1996 H   0  0  0  0  0  0  0  0  0  0  0  0
   -4.6376   -2.8941   -2.0689 H   0  0  0  0  0  0  0  0  0  0  0  0
   -8.3635    0.2450   -2.2611 H   0  0  0  0  0  0  0  0  0  0  0  0
   -8.8732    2.3872   -1.0892 H   0  0  0  0  0  0  0  0  0  0  0  0
   -7.3011    3.3032    0.5814 H   0  0  0  0  0  0  0  0  0  0  0  0
   -5.1893    2.1182    1.1283 H   0  0  0  0  0  0  0  0  0  0  0  0
   -2.2184    0.7795   -0.9205 H   0  0  0  0  0  0  0  0  0  0  0  0
   -1.9284   -0.9583   -0.9146 H   0  0  0  0  0  0  0  0  0  0  0  0
    0.0019    0.1995    0.0195 H   0  0  0  0  0  0  0  0  0  0  0  0
   -0.9830    1.0407    1.2024 H   0  0  0  0  0  0  0  0  0  0  0  0
    1.2062   -2.1917   -0.1617 H   0  0  0  0  0  0  0  0  0  0  0  0
    3.2937   -1.7389   -1.3733 H   0  0  0  0  0  0  0  0  0  0  0  0
  1  2  1  0
  2  3  1  0
  3  4  2  0
  4  5  1  0
  5  6  1  0
  5  7  2  0
  7  8  1  0
  8  9  1  0
  9 10  2  0
 10 11  1  0
 11 12  2  0
 12 13  1  0
 13 14  2  0
 13 15  1  0
 15 16  1  0
 16 17  1  0
 17 18  1  0
 18 19  1  0
 19 20  1  0
 20 21  1  0
 20 22  2  0
 22 23  1  0
 23 24  2  0
 24 25  1  0
 25 26  2  0
 26 27  1  0
 27 28  2  0
 18 29  1  0
 29 30  1  0
 12 31  1  0
 31 32  2  0
  8 33  2  0
 33  3  1  0
 32  9  1  0
 30 15  1  0
 28 19  1  0
 28 23  1  0
  1 34  1  0
  1 35  1  0
  1 36  1  0
  7 37  1  0
 10 38  1  0
 11 39  1  0
 16 40  1  0
 16 41  1  0
 17 42  1  0
 17 43  1  0
 18 44  1  0
 21 45  1  0
 24 46  1  0
 25 47  1  0
 26 48  1  0
 27 49  1  0
 29 50  1  0
 29 51  1  0
 30 52  1  0
 30 53  1  0
 31 54  1  0
 32 55  1  0
M  END
$$$$
