
     RDKit          3D

 59 63  0  0  0  0  0  0  0  0999 V2000
    8.4016    1.2073    0.6368 C   0  0  0  0  0  0  0  0  0  0  0  0
    7.3459    0.2596    0.3028 N   0  0  0  0  0  0  0  0  0  0  0  0
    6.0422    0.6336    0.5370 C   0  0  0  0  0  0  0  0  0  0  0  0
    4.9987   -0.1393    0.2157 C   0  0  0  0  0  0  0  0  0  0  0  0
    3.6273    0.3417    0.4563 C   0  0  0  0  0  0  0  0  0  0  0  0
    3.1758    0.6029    1.7616 C   0  0  0  0  0  0  0  0  0  0  0  0
    1.8896    1.1057    1.9797 C   0  0  0  0  0  0  0  0  0  0  0  0
    1.0414    1.3350    0.8929 C   0  0  0  0  0  0  0  0  0  0  0  0
   -0.2929    1.9317    1.1338 C   0  0  0  0  0  0  0  0  0  0  0  0
   -0.3416    2.9806    1.7737 O   0  0  0  0  0  0  0  0  0  0  0  0
   -1.4170    1.2926    0.6043 N   0  0  0  0  0  0  0  0  0  0  0  0
   -1.4354   -0.1440    0.3109 C   0  0  0  0  0  0  0  0  0  0  0  0
   -2.8444   -0.6874    0.1018 C   0  0  0  0  0  0  0  0  0  0  0  0
   -3.5950    0.2056   -0.8913 C   0  0  0  0  0  0  0  0  0  0  0  0
   -4.9223   -0.3106   -1.1948 N   0  0  0  0  0  0  0  0  0  0  0  0
   -5.2961   -0.8510   -2.3951 C   0  0  0  0  0  0  0  0  0  0  0  0
   -4.5078   -0.9641   -3.4480 O   0  0  0  0  0  0  0  0  0  0  0  0
   -6.5331   -1.2685   -2.4122 N   0  0  0  0  0  0  0  0  0  0  0  0
   -7.0053   -0.9847   -1.1543 C   0  0  0  0  0  0  0  0  0  0  0  0
   -8.2820   -1.2164   -0.6179 C   0  0  0  0  0  0  0  0  0  0  0  0
   -8.5469   -0.8203    0.6986 C   0  0  0  0  0  0  0  0  0  0  0  0
   -7.5548   -0.2146    1.4739 C   0  0  0  0  0  0  0  0  0  0  0  0
   -6.2703    0.0145    0.9640 C   0  0  0  0  0  0  0  0  0  0  0  0
   -6.0224   -0.3805   -0.3621 C   0  0  0  0  0  0  0  0  0  0  0  0
   -3.5884    1.6913   -0.4888 C   0  0  0  0  0  0  0  0  0  0  0  0
   -2.7047    1.9665    0.7244 C   0  0  0  0  0  0  0  0  0  0  0  0
    1.4835    1.0898   -0.4120 C   0  0  0  0  0  0  0  0  0  0  0  0
    2.7686    0.5851   -0.6271 C   0  0  0  0  0  0  0  0  0  0  0  0
    5.2771   -1.4463   -0.4436 C   0  0  0  0  0  0  0  0  0  0  0  0
    4.3484   -2.1370   -0.8656 O   0  0  0  0  0  0  0  0  0  0  0  0
    6.6132   -1.8087   -0.5494 N   0  0  0  0  0  0  0  0  0  0  0  0
    6.9206   -3.0905   -1.1547 C   0  0  0  0  0  0  0  0  0  0  0  0
    7.6846   -0.9653   -0.2642 C   0  0  0  0  0  0  0  0  0  0  0  0
    8.8516   -1.2786   -0.5078 O   0  0  0  0  0  0  0  0  0  0  0  0
    8.2801    2.1022    0.0166 H   0  0  0  0  0  0  0  0  0  0  0  0
    9.3983    0.7940    0.4608 H   0  0  0  0  0  0  0  0  0  0  0  0
    8.3190    1.4794    1.6945 H   0  0  0  0  0  0  0  0  0  0  0  0
    5.9006    1.6144    0.9864 H   0  0  0  0  0  0  0  0  0  0  0  0
    3.8223    0.4242    2.6198 H   0  0  0  0  0  0  0  0  0  0  0  0
    1.5531    1.3276    2.9909 H   0  0  0  0  0  0  0  0  0  0  0  0
   -0.8434   -0.3126   -0.5941 H   0  0  0  0  0  0  0  0  0  0  0  0
   -0.9463   -0.6778    1.1324 H   0  0  0  0  0  0  0  0  0  0  0  0
   -2.7953   -1.7211   -0.2646 H   0  0  0  0  0  0  0  0  0  0  0  0
   -3.3714   -0.7254    1.0633 H   0  0  0  0  0  0  0  0  0  0  0  0
   -3.0337    0.1510   -1.8346 H   0  0  0  0  0  0  0  0  0  0  0  0
   -5.1165   -1.3630   -4.0968 H   0  0  0  0  0  0  0  0  0  0  0  0
   -9.0485   -1.6850   -1.2265 H   0  0  0  0  0  0  0  0  0  0  0  0
   -9.5363   -0.9881    1.1229 H   0  0  0  0  0  0  0  0  0  0  0  0
   -7.7899    0.0918    2.4951 H   0  0  0  0  0  0  0  0  0  0  0  0
   -5.5109    0.4886    1.5798 H   0  0  0  0  0  0  0  0  0  0  0  0
   -3.2024    2.2661   -1.3392 H   0  0  0  0  0  0  0  0  0  0  0  0
   -4.5945    2.0864   -0.3042 H   0  0  0  0  0  0  0  0  0  0  0  0
   -3.1818    1.6146    1.6469 H   0  0  0  0  0  0  0  0  0  0  0  0
   -2.5636    3.0477    0.8302 H   0  0  0  0  0  0  0  0  0  0  0  0
    0.8419    1.3091   -1.2622 H   0  0  0  0  0  0  0  0  0  0  0  0
    3.1006    0.3946   -1.6477 H   0  0  0  0  0  0  0  0  0  0  0  0
    7.8550   -3.4959   -0.7517 H   0  0  0  0  0  0  0  0  0  0  0  0
    6.1193   -3.8154   -0.9760 H   0  0  0  0  0  0  0  0  0  0  0  0
    7.0348   -2.9432   -2.2346 H   0  0  0  0  0  0  0  0  0  0  0  0
  1  2  1  0
  2  3  1  0
  3  4  2  0
  4  5  1  0
  5  6  2  0
  6  7  1  0
  7  8  2  0
  8  9  1  0
  9 10  2  0
  9 11  1  0
 11 12  1  0
 12 13  1  0
 13 14  1  0
 14 15  1  0
 15 16  1  0
 16 17  1  0
 16 18  2  0
 18 19  1  0
 19 20  2  0
 20 21  1  0
 21 22  2  0
 22 23  1  0
 23 24  2  0
 14 25  1  0
 25 26  1  0
  8 27  1  0
 27 28  2  0
  4 29  1  0
 29 30  2  0
 29 31  1  0
 31 32  1  0
 31 33  1  0
 33 34  2  0
 33  2  1  0
 28  5  1  0
 26 11  1  0
 24 15  1  0
 24 19  1  0
  1 35  1  0
  1 36  1  0
  1 37  1  0
  3 38  1  0
  6 39  1  0
  7 40  1  0
 12 41  1  0
 12 42  1  0
 13 43  1  0
 13 44  1  0
 14 45  1  0
 17 46  1  0
 20 47  1  0
 21 48  1  0
 22 49  1  0
 23 50  1  0
 25 51  1  0
 25 52  1  0
 26 53  1  0
 26 54  1  0
 27 55  1  0
 28 56  1  0
 32 57  1  0
 32 58  1  0
 32 59  1  0
M  END
$$$$
