
     RDKit          3D

 55 59  0  0  0  0  0  0  0  0999 V2000
   -7.9512    2.3371   -1.1728 N   0  0  0  0  0  0  0  0  0  0  0  0
   -7.1689    1.1815   -1.1654 C   0  0  0  0  0  0  0  0  0  0  0  0
   -6.0106    1.1322   -0.4268 C   0  0  0  0  0  0  0  0  0  0  0  0
   -5.2871   -0.0418   -0.4898 C   0  0  0  0  0  0  0  0  0  0  0  0
   -4.0208   -0.2460    0.2451 C   0  0  0  0  0  0  0  0  0  0  0  0
   -3.1100    0.8060    0.4693 C   0  0  0  0  0  0  0  0  0  0  0  0
   -1.9153    0.5976    1.1676 C   0  0  0  0  0  0  0  0  0  0  0  0
   -1.6035   -0.6791    1.6394 C   0  0  0  0  0  0  0  0  0  0  0  0
   -0.3606   -0.9122    2.4021 C   0  0  0  0  0  0  0  0  0  0  0  0
   -0.4694   -1.3071    3.5611 O   0  0  0  0  0  0  0  0  0  0  0  0
    0.8682   -0.6588    1.7916 N   0  0  0  0  0  0  0  0  0  0  0  0
    1.0778   -0.5268    0.3519 C   0  0  0  0  0  0  0  0  0  0  0  0
    2.0052    0.6448    0.0498 C   0  0  0  0  0  0  0  0  0  0  0  0
    3.2237    0.6907    0.9943 C   0  0  0  0  0  0  0  0  0  0  0  0
    4.4631    1.0127    0.2982 N   0  0  0  0  0  0  0  0  0  0  0  0
    5.2241    2.1270    0.5223 C   0  0  0  0  0  0  0  0  0  0  0  0
    4.9337    3.0710    1.3937 O   0  0  0  0  0  0  0  0  0  0  0  0
    6.2951    2.1810   -0.2197 N   0  0  0  0  0  0  0  0  0  0  0  0
    6.2390    1.0386   -0.9802 C   0  0  0  0  0  0  0  0  0  0  0  0
    7.1374    0.5820   -1.9570 C   0  0  0  0  0  0  0  0  0  0  0  0
    6.8692   -0.6247   -2.6126 C   0  0  0  0  0  0  0  0  0  0  0  0
    5.7273   -1.3640   -2.3031 C   0  0  0  0  0  0  0  0  0  0  0  0
    4.8184   -0.9269   -1.3323 C   0  0  0  0  0  0  0  0  0  0  0  0
    5.1018    0.2824   -0.6825 C   0  0  0  0  0  0  0  0  0  0  0  0
    3.3584   -0.5647    1.8654 C   0  0  0  0  0  0  0  0  0  0  0  0
    2.0594   -0.8353    2.6171 C   0  0  0  0  0  0  0  0  0  0  0  0
   -2.4918   -1.7360    1.4490 C   0  0  0  0  0  0  0  0  0  0  0  0
   -3.6822   -1.5188    0.7481 C   0  0  0  0  0  0  0  0  0  0  0  0
   -5.7057   -1.0879   -1.2341 N   0  0  0  0  0  0  0  0  0  0  0  0
   -6.8240   -0.9253   -1.9417 C   0  0  0  0  0  0  0  0  0  0  0  0
   -7.2467   -1.9880   -2.7122 N   0  0  0  0  0  0  0  0  0  0  0  0
   -7.5864    0.1687   -1.9290 N   0  0  0  0  0  0  0  0  0  0  0  0
   -8.7669    2.1490   -1.7519 H   0  0  0  0  0  0  0  0  0  0  0  0
   -8.2143    2.6263   -0.2375 H   0  0  0  0  0  0  0  0  0  0  0  0
   -5.6978    1.9770    0.1718 H   0  0  0  0  0  0  0  0  0  0  0  0
   -3.3138    1.8052    0.0894 H   0  0  0  0  0  0  0  0  0  0  0  0
   -1.2367    1.4286    1.3424 H   0  0  0  0  0  0  0  0  0  0  0  0
    1.5184   -1.4683    0.0016 H   0  0  0  0  0  0  0  0  0  0  0  0
    0.1408   -0.4108   -0.1962 H   0  0  0  0  0  0  0  0  0  0  0  0
    2.2925    0.6115   -1.0072 H   0  0  0  0  0  0  0  0  0  0  0  0
    1.4446    1.5815    0.1732 H   0  0  0  0  0  0  0  0  0  0  0  0
    3.0429    1.5251    1.6867 H   0  0  0  0  0  0  0  0  0  0  0  0
    5.6886    3.6771    1.2761 H   0  0  0  0  0  0  0  0  0  0  0  0
    8.0223    1.1627   -2.1933 H   0  0  0  0  0  0  0  0  0  0  0  0
    7.5591   -0.9866   -3.3712 H   0  0  0  0  0  0  0  0  0  0  0  0
    5.5389   -2.2994   -2.8272 H   0  0  0  0  0  0  0  0  0  0  0  0
    3.9345   -1.5124   -1.1061 H   0  0  0  0  0  0  0  0  0  0  0  0
    3.6022   -1.4376    1.2488 H   0  0  0  0  0  0  0  0  0  0  0  0
    4.1836   -0.4574    2.5799 H   0  0  0  0  0  0  0  0  0  0  0  0
    1.9688   -0.1566    3.4739 H   0  0  0  0  0  0  0  0  0  0  0  0
    2.0640   -1.8578    3.0127 H   0  0  0  0  0  0  0  0  0  0  0  0
   -2.2638   -2.7230    1.8440 H   0  0  0  0  0  0  0  0  0  0  0  0
   -4.3621   -2.3573    0.6000 H   0  0  0  0  0  0  0  0  0  0  0  0
   -6.8705   -2.8529   -2.3514 H   0  0  0  0  0  0  0  0  0  0  0  0
   -8.2432   -1.9338   -2.8651 H   0  0  0  0  0  0  0  0  0  0  0  0
  1  2  1  0
  2  3  2  0
  3  4  1  0
  4  5  1  0
  5  6  2  0
  6  7  1  0
  7  8  2  0
  8  9  1  0
  9 10  2  0
  9 11  1  0
 11 12  1  0
 12 13  1  0
 13 14  1  0
 14 15  1  0
 15 16  1  0
 16 17  1  0
 16 18  2  0
 18 19  1  0
 19 20  2  0
 20 21  1  0
 21 22  2  0
 22 23  1  0
 23 24  2  0
 14 25  1  0
 25 26  1  0
  8 27  1  0
 27 28  2  0
  4 29  2  0
 29 30  1  0
 30 31  1  0
 30 32  2  0
 32  2  1  0
 28  5  1  0
 26 11  1  0
 24 15  1  0
 24 19  1  0
  1 33  1  0
  1 34  1  0
  3 35  1  0
  6 36  1  0
  7 37  1  0
 12 38  1  0
 12 39  1  0
 13 40  1  0
 13 41  1  0
 14 42  1  0
 17 43  1  0
 20 44  1  0
 21 45  1  0
 22 46  1  0
 23 47  1  0
 25 48  1  0
 25 49  1  0
 26 50  1  0
 26 51  1  0
 27 52  1  0
 28 53  1  0
 31 54  1  0
 31 55  1  0
M  END
$$$$
