
     RDKit          3D

 61 64  0  0  0  0  0  0  0  0999 V2000
   -2.1528    2.6973   -0.2779 C   0  0  0  0  0  0  0  0  0  0  0  0
   -2.9350    1.5406   -0.9252 C   0  0  0  0  0  0  0  0  0  0  0  0
   -1.9912    0.4772   -1.5362 C   0  0  0  0  0  0  0  0  0  0  0  0
   -1.0372   -0.0474   -0.5516 N   0  0  0  0  0  0  0  0  0  0  0  0
   -1.0577   -1.3922   -0.1477 C   0  0  0  0  0  0  0  0  0  0  0  0
   -2.1842   -2.2180   -0.2383 C   0  0  0  0  0  0  0  0  0  0  0  0
   -2.2561   -3.5093    0.1749 N   0  0  0  0  0  0  0  0  0  0  0  0
   -1.1527   -4.0180    0.7467 C   0  0  0  0  0  0  0  0  0  0  0  0
    0.0091   -3.2943    0.9401 C   0  0  0  0  0  0  0  0  0  0  0  0
    0.0578   -1.9596    0.5127 C   0  0  0  0  0  0  0  0  0  0  0  0
    1.2839   -1.2019    0.7884 C   0  0  0  0  0  0  0  0  0  0  0  0
    1.3810   -0.0626    1.4987 C   0  0  0  0  0  0  0  0  0  0  0  0
    2.7662    0.3242    1.5940 C   0  0  0  0  0  0  0  0  0  0  0  0
    3.5085   -0.5669    0.9181 C   0  0  0  0  0  0  0  0  0  0  0  0
    4.9681   -0.6528    0.8682 C   0  0  0  0  0  0  0  0  0  0  0  0
    5.5075   -1.6445    1.3540 O   0  0  0  0  0  0  0  0  0  0  0  0
    5.6594    0.3843    0.2727 N   0  0  0  0  0  0  0  0  0  0  0  0
    5.0559    1.4435   -0.5473 C   0  0  0  0  0  0  0  0  0  0  0  0
    6.0425    2.5922   -0.7824 C   0  0  0  0  0  0  0  0  0  0  0  0
    7.2632    2.1850   -1.4150 O   0  0  0  0  0  0  0  0  0  0  0  0
    7.6337    0.8242   -1.1492 C   0  0  0  0  0  0  0  0  0  0  0  0
    7.1219    0.3023    0.1963 C   0  0  0  0  0  0  0  0  0  0  0  0
    2.6556   -1.6514    0.3480 C   0  0  0  0  0  0  0  0  0  0  0  0
    2.7399   -1.6662   -1.0104 F   0  0  0  0  0  0  0  0  0  0  0  0
   -3.9930    0.9293   -0.0083 C   0  0  0  0  0  0  0  0  0  0  0  0
   -3.7059    0.7006    1.3510 C   0  0  0  0  0  0  0  0  0  0  0  0
   -4.6542    0.1401    2.2089 C   0  0  0  0  0  0  0  0  0  0  0  0
   -5.9011   -0.2175    1.7207 C   0  0  0  0  0  0  0  0  0  0  0  0
   -6.7877   -0.7754    2.5919 O   0  0  0  0  0  0  0  0  0  0  0  0
   -6.2210   -0.0198    0.3847 C   0  0  0  0  0  0  0  0  0  0  0  0
   -5.2725    0.5544   -0.4803 C   0  0  0  0  0  0  0  0  0  0  0  0
   -5.6609    0.7133   -1.9066 C   0  0  0  0  0  0  0  0  0  0  0  0
   -6.8890    1.2681   -2.1369 N   0  0  0  0  0  0  0  0  0  0  0  0
   -4.9249    0.3875   -2.8262 O   0  0  0  0  0  0  0  0  0  0  0  0
   -1.5051    3.1811   -1.0177 H   0  0  0  0  0  0  0  0  0  0  0  0
   -1.5151    2.3709    0.5477 H   0  0  0  0  0  0  0  0  0  0  0  0
   -2.8374    3.4584    0.1118 H   0  0  0  0  0  0  0  0  0  0  0  0
   -3.4579    2.0211   -1.7614 H   0  0  0  0  0  0  0  0  0  0  0  0
   -2.5502   -0.3135   -2.0447 H   0  0  0  0  0  0  0  0  0  0  0  0
   -1.4028    0.9636   -2.3248 H   0  0  0  0  0  0  0  0  0  0  0  0
   -0.0851    0.2530   -0.7538 H   0  0  0  0  0  0  0  0  0  0  0  0
   -3.1166   -1.8607   -0.6629 H   0  0  0  0  0  0  0  0  0  0  0  0
   -1.2320   -5.0507    1.0719 H   0  0  0  0  0  0  0  0  0  0  0  0
    0.8469   -3.7643    1.4436 H   0  0  0  0  0  0  0  0  0  0  0  0
    0.5645    0.4732    1.9614 H   0  0  0  0  0  0  0  0  0  0  0  0
    3.1300    1.1606    2.1721 H   0  0  0  0  0  0  0  0  0  0  0  0
    4.7792    0.9813   -1.5039 H   0  0  0  0  0  0  0  0  0  0  0  0
    4.1469    1.8268   -0.0789 H   0  0  0  0  0  0  0  0  0  0  0  0
    5.5847    3.3610   -1.4132 H   0  0  0  0  0  0  0  0  0  0  0  0
    6.3057    3.0658    0.1711 H   0  0  0  0  0  0  0  0  0  0  0  0
    8.7263    0.7676   -1.1873 H   0  0  0  0  0  0  0  0  0  0  0  0
    7.2439    0.2094   -1.9692 H   0  0  0  0  0  0  0  0  0  0  0  0
    7.4679   -0.7228    0.3581 H   0  0  0  0  0  0  0  0  0  0  0  0
    7.5076    0.9251    1.0116 H   0  0  0  0  0  0  0  0  0  0  0  0
    2.9235   -2.6385    0.7371 H   0  0  0  0  0  0  0  0  0  0  0  0
   -2.7242    0.9329    1.7575 H   0  0  0  0  0  0  0  0  0  0  0  0
   -4.4074   -0.0352    3.2526 H   0  0  0  0  0  0  0  0  0  0  0  0
   -7.5556   -1.1057    2.0975 H   0  0  0  0  0  0  0  0  0  0  0  0
   -7.1882   -0.3289    0.0011 H   0  0  0  0  0  0  0  0  0  0  0  0
   -7.1165    1.4843   -3.0983 H   0  0  0  0  0  0  0  0  0  0  0  0
   -7.4099    1.7383   -1.4095 H   0  0  0  0  0  0  0  0  0  0  0  0
  1  2  1  0
  2  3  1  0
  3  4  1  0
  4  5  1  0
  5  6  2  0
  6  7  1  0
  7  8  2  0
  8  9  1  0
  9 10  2  0
 10 11  1  0
 11 12  2  0
 12 13  1  0
 13 14  2  0
 14 15  1  0
 15 16  2  0
 15 17  1  0
 17 18  1  0
 18 19  1  0
 19 20  1  0
 20 21  1  0
 21 22  1  0
 14 23  1  0
 23 24  1  0
  2 25  1  0
 25 26  2  0
 26 27  1  0
 27 28  2  0
 28 29  1  0
 28 30  1  0
 30 31  2  0
 31 32  1  0
 32 33  1  0
 32 34  2  0
 10  5  1  0
 23 11  1  0
 31 25  1  0
 22 17  1  0
  1 35  1  0
  1 36  1  0
  1 37  1  0
  2 38  1  0
  3 39  1  0
  3 40  1  0
  4 41  1  0
  6 42  1  0
  8 43  1  0
  9 44  1  0
 12 45  1  0
 13 46  1  0
 18 47  1  0
 18 48  1  0
 19 49  1  0
 19 50  1  0
 21 51  1  0
 21 52  1  0
 22 53  1  0
 22 54  1  0
 23 55  1  0
 26 56  1  0
 27 57  1  0
 29 58  1  0
 30 59  1  0
 33 60  1  0
 33 61  1  0
M  END
$$$$
