
     RDKit          3D

 60 63  0  0  0  0  0  0  0  0999 V2000
   -1.9517   -1.6263    0.5689 C   0  0  0  0  0  0  0  0  0  0  0  0
   -2.4697   -0.6723   -0.5151 C   0  0  0  0  0  0  0  0  0  0  0  0
   -2.4954    0.7965   -0.0248 C   0  0  0  0  0  0  0  0  0  0  0  0
   -1.1792    1.4149   -0.2402 N   0  0  0  0  0  0  0  0  0  0  0  0
   -0.9479    2.7230    0.2279 C   0  0  0  0  0  0  0  0  0  0  0  0
   -1.9593    3.6193    0.5845 C   0  0  0  0  0  0  0  0  0  0  0  0
   -1.7669    4.8955    1.0064 N   0  0  0  0  0  0  0  0  0  0  0  0
   -0.4951    5.3289    1.0568 C   0  0  0  0  0  0  0  0  0  0  0  0
    0.5902    4.5551    0.6908 C   0  0  0  0  0  0  0  0  0  0  0  0
    0.3645    3.2448    0.2527 C   0  0  0  0  0  0  0  0  0  0  0  0
    1.5176    2.4663   -0.1951 C   0  0  0  0  0  0  0  0  0  0  0  0
    1.7959    2.1136   -1.4625 C   0  0  0  0  0  0  0  0  0  0  0  0
    3.0465    1.3979   -1.4886 C   0  0  0  0  0  0  0  0  0  0  0  0
    3.5122    1.2976   -0.2324 C   0  0  0  0  0  0  0  0  0  0  0  0
    4.8006    0.7606    0.2075 C   0  0  0  0  0  0  0  0  0  0  0  0
    5.5953    1.5249    0.7495 O   0  0  0  0  0  0  0  0  0  0  0  0
    5.0425   -0.5846    0.0026 N   0  0  0  0  0  0  0  0  0  0  0  0
    6.2900   -1.1626    0.5102 C   0  0  0  0  0  0  0  0  0  0  0  0
    6.0179   -2.4872    1.2315 C   0  0  0  0  0  0  0  0  0  0  0  0
    5.3823   -3.4766    0.4076 O   0  0  0  0  0  0  0  0  0  0  0  0
    4.6567   -2.9317   -0.7023 C   0  0  0  0  0  0  0  0  0  0  0  0
    4.0301   -1.5661   -0.4082 C   0  0  0  0  0  0  0  0  0  0  0  0
    2.5946    1.9699    0.7340 C   0  0  0  0  0  0  0  0  0  0  0  0
    2.0813    1.0651    1.6116 F   0  0  0  0  0  0  0  0  0  0  0  0
   -3.7831   -1.1455   -1.1350 C   0  0  0  0  0  0  0  0  0  0  0  0
   -3.7815   -1.4052   -2.5237 C   0  0  0  0  0  0  0  0  0  0  0  0
   -4.9225   -1.8756   -3.1776 C   0  0  0  0  0  0  0  0  0  0  0  0
   -6.0859   -2.0885   -2.4560 C   0  0  0  0  0  0  0  0  0  0  0  0
   -7.1812   -2.5357   -3.0835 F   0  0  0  0  0  0  0  0  0  0  0  0
   -6.1323   -1.8380   -1.0944 C   0  0  0  0  0  0  0  0  0  0  0  0
   -4.9866   -1.3670   -0.4319 C   0  0  0  0  0  0  0  0  0  0  0  0
   -5.1427   -1.0813    1.0099 C   0  0  0  0  0  0  0  0  0  0  0  0
   -5.5576   -2.1270    1.7811 N   0  0  0  0  0  0  0  0  0  0  0  0
   -4.9351    0.0300    1.4719 O   0  0  0  0  0  0  0  0  0  0  0  0
   -0.9335   -1.3532    0.8681 H   0  0  0  0  0  0  0  0  0  0  0  0
   -1.9203   -2.6568    0.1990 H   0  0  0  0  0  0  0  0  0  0  0  0
   -2.5688   -1.6124    1.4718 H   0  0  0  0  0  0  0  0  0  0  0  0
   -1.7155   -0.7258   -1.3148 H   0  0  0  0  0  0  0  0  0  0  0  0
   -3.2474    1.3593   -0.5903 H   0  0  0  0  0  0  0  0  0  0  0  0
   -2.7410    0.8432    1.0404 H   0  0  0  0  0  0  0  0  0  0  0  0
   -0.4085    0.8119    0.0510 H   0  0  0  0  0  0  0  0  0  0  0  0
   -3.0062    3.3326    0.5548 H   0  0  0  0  0  0  0  0  0  0  0  0
   -0.3652    6.3518    1.3978 H   0  0  0  0  0  0  0  0  0  0  0  0
    1.5875    4.9790    0.7275 H   0  0  0  0  0  0  0  0  0  0  0  0
    1.2034    2.3452   -2.3359 H   0  0  0  0  0  0  0  0  0  0  0  0
    3.5385    1.0610   -2.3885 H   0  0  0  0  0  0  0  0  0  0  0  0
    6.8056   -0.4683    1.1838 H   0  0  0  0  0  0  0  0  0  0  0  0
    6.9316   -1.3320   -0.3635 H   0  0  0  0  0  0  0  0  0  0  0  0
    6.9548   -2.9186    1.5974 H   0  0  0  0  0  0  0  0  0  0  0  0
    5.3694   -2.3215    2.0992 H   0  0  0  0  0  0  0  0  0  0  0  0
    5.3490   -2.8589   -1.5501 H   0  0  0  0  0  0  0  0  0  0  0  0
    3.8792   -3.6534   -0.9766 H   0  0  0  0  0  0  0  0  0  0  0  0
    3.3127   -1.6463    0.4175 H   0  0  0  0  0  0  0  0  0  0  0  0
    3.5005   -1.2105   -1.2952 H   0  0  0  0  0  0  0  0  0  0  0  0
    3.0817    2.7779    1.2872 H   0  0  0  0  0  0  0  0  0  0  0  0
   -2.8807   -1.2409   -3.1156 H   0  0  0  0  0  0  0  0  0  0  0  0
   -4.9073   -2.0709   -4.2449 H   0  0  0  0  0  0  0  0  0  0  0  0
   -7.0688   -1.9865   -0.5626 H   0  0  0  0  0  0  0  0  0  0  0  0
   -5.6460   -1.9682    2.7768 H   0  0  0  0  0  0  0  0  0  0  0  0
   -5.6489   -3.0705    1.4321 H   0  0  0  0  0  0  0  0  0  0  0  0
  1  2  1  0
  2  3  1  0
  3  4  1  0
  4  5  1  0
  5  6  2  0
  6  7  1  0
  7  8  2  0
  8  9  1  0
  9 10  2  0
 10 11  1  0
 11 12  2  0
 12 13  1  0
 13 14  2  0
 14 15  1  0
 15 16  2  0
 15 17  1  0
 17 18  1  0
 18 19  1  0
 19 20  1  0
 20 21  1  0
 21 22  1  0
 14 23  1  0
 23 24  1  0
  2 25  1  0
 25 26  2  0
 26 27  1  0
 27 28  2  0
 28 29  1  0
 28 30  1  0
 30 31  2  0
 31 32  1  0
 32 33  1  0
 32 34  2  0
 10  5  1  0
 23 11  1  0
 31 25  1  0
 22 17  1  0
  1 35  1  0
  1 36  1  0
  1 37  1  0
  2 38  1  0
  3 39  1  0
  3 40  1  0
  4 41  1  0
  6 42  1  0
  8 43  1  0
  9 44  1  0
 12 45  1  0
 13 46  1  0
 18 47  1  0
 18 48  1  0
 19 49  1  0
 19 50  1  0
 21 51  1  0
 21 52  1  0
 22 53  1  0
 22 54  1  0
 23 55  1  0
 26 56  1  0
 27 57  1  0
 30 58  1  0
 33 59  1  0
 33 60  1  0
M  END
$$$$
