
     RDKit          3D

 55 59  0  0  0  0  0  0  0  0999 V2000
   -2.6266    0.6908    2.1535 O   0  0  0  0  0  0  0  0  0  0  0  0
   -2.9588    0.2005    1.0788 C   0  0  0  0  0  0  0  0  0  0  0  0
   -2.1025    0.4196   -0.0827 C   0  0  0  0  0  0  0  0  0  0  0  0
   -2.2005    1.4265   -0.9632 C   0  0  0  0  0  0  0  0  0  0  0  0
   -1.0720    1.3615   -1.8595 C   0  0  0  0  0  0  0  0  0  0  0  0
   -0.2684    0.3458   -1.4892 C   0  0  0  0  0  0  0  0  0  0  0  0
    1.0085   -0.0408   -2.0956 C   0  0  0  0  0  0  0  0  0  0  0  0
    1.1498   -1.3634   -2.5355 C   0  0  0  0  0  0  0  0  0  0  0  0
    2.3571   -1.7692   -3.0728 C   0  0  0  0  0  0  0  0  0  0  0  0
    3.4226   -0.9593   -3.1969 N   0  0  0  0  0  0  0  0  0  0  0  0
    3.2579    0.3257   -2.8016 C   0  0  0  0  0  0  0  0  0  0  0  0
    2.1039    0.8431   -2.2076 C   0  0  0  0  0  0  0  0  0  0  0  0
    2.0732    2.1558   -1.6960 N   0  0  0  0  0  0  0  0  0  0  0  0
    3.0858    2.4851   -0.6774 C   0  0  0  0  0  0  0  0  0  0  0  0
    2.8562    1.6872    0.5953 C   0  0  0  0  0  0  0  0  0  0  0  0
    1.6934    1.9457    1.3522 C   0  0  0  0  0  0  0  0  0  0  0  0
    1.4082    1.2066    2.4993 C   0  0  0  0  0  0  0  0  0  0  0  0
    2.2839    0.2068    2.9022 C   0  0  0  0  0  0  0  0  0  0  0  0
    2.0136   -0.5060    4.0039 F   0  0  0  0  0  0  0  0  0  0  0  0
    3.4437   -0.0617    2.1848 C   0  0  0  0  0  0  0  0  0  0  0  0
    3.7445    0.6752    1.0294 C   0  0  0  0  0  0  0  0  0  0  0  0
    4.9996    0.4125    0.3483 C   0  0  0  0  0  0  0  0  0  0  0  0
    6.0794    1.1694    0.3505 N   0  0  0  0  0  0  0  0  0  0  0  0
    7.0003    0.5296   -0.4427 N   0  0  0  0  0  0  0  0  0  0  0  0
    6.5041   -0.5990   -0.9309 N   0  0  0  0  0  0  0  0  0  0  0  0
    5.2522   -0.6717   -0.4514 N   0  0  0  0  0  0  0  0  0  0  0  0
   -0.8811   -0.3973   -0.3229 C   0  0  0  0  0  0  0  0  0  0  0  0
   -1.2156   -1.6717   -0.6719 F   0  0  0  0  0  0  0  0  0  0  0  0
   -4.1026   -0.5406    0.8829 N   0  0  0  0  0  0  0  0  0  0  0  0
   -4.9630   -0.8423    2.0288 C   0  0  0  0  0  0  0  0  0  0  0  0
   -5.6095   -2.2218    1.8788 C   0  0  0  0  0  0  0  0  0  0  0  0
   -6.3844   -2.3785    0.6792 O   0  0  0  0  0  0  0  0  0  0  0  0
   -5.9889   -1.5123   -0.3896 C   0  0  0  0  0  0  0  0  0  0  0  0
   -4.4944   -1.1781   -0.3820 C   0  0  0  0  0  0  0  0  0  0  0  0
   -2.9599    2.1991   -0.9789 H   0  0  0  0  0  0  0  0  0  0  0  0
   -0.9119    2.0490   -2.6771 H   0  0  0  0  0  0  0  0  0  0  0  0
    0.3324   -2.0788   -2.4672 H   0  0  0  0  0  0  0  0  0  0  0  0
    2.4974   -2.7865   -3.4297 H   0  0  0  0  0  0  0  0  0  0  0  0
    4.1294    0.9564   -2.9645 H   0  0  0  0  0  0  0  0  0  0  0  0
    1.1467    2.4158   -1.3730 H   0  0  0  0  0  0  0  0  0  0  0  0
    4.0968    2.3773   -1.0770 H   0  0  0  0  0  0  0  0  0  0  0  0
    2.9886    3.5464   -0.4300 H   0  0  0  0  0  0  0  0  0  0  0  0
    1.0001    2.7289    1.0451 H   0  0  0  0  0  0  0  0  0  0  0  0
    0.5085    1.4027    3.0794 H   0  0  0  0  0  0  0  0  0  0  0  0
    4.1179   -0.8281    2.5571 H   0  0  0  0  0  0  0  0  0  0  0  0
    4.6283   -1.4138   -0.7650 H   0  0  0  0  0  0  0  0  0  0  0  0
   -0.2159   -0.4295    0.5457 H   0  0  0  0  0  0  0  0  0  0  0  0
   -4.3903   -0.7963    2.9589 H   0  0  0  0  0  0  0  0  0  0  0  0
   -5.7302   -0.0639    2.0581 H   0  0  0  0  0  0  0  0  0  0  0  0
   -6.2693   -2.4275    2.7272 H   0  0  0  0  0  0  0  0  0  0  0  0
   -4.8375   -3.0005    1.8686 H   0  0  0  0  0  0  0  0  0  0  0  0
   -6.5853   -0.5946   -0.3109 H   0  0  0  0  0  0  0  0  0  0  0  0
   -6.2630   -2.0023   -1.3299 H   0  0  0  0  0  0  0  0  0  0  0  0
   -3.9011   -2.0986   -0.4680 H   0  0  0  0  0  0  0  0  0  0  0  0
   -4.2512   -0.5292   -1.2292 H   0  0  0  0  0  0  0  0  0  0  0  0
  1  2  2  0
  2  3  1  0
  3  4  2  0
  4  5  1  0
  5  6  2  0
  6  7  1  0
  7  8  2  0
  8  9  1  0
  9 10  2  0
 10 11  1  0
 11 12  2  0
 12 13  1  0
 13 14  1  0
 14 15  1  0
 15 16  2  0
 16 17  1  0
 17 18  2  0
 18 19  1  0
 18 20  1  0
 20 21  2  0
 21 22  1  0
 22 23  2  0
 23 24  1  0
 24 25  2  0
 25 26  1  0
  6 27  1  0
 27 28  1  0
  2 29  1  0
 29 30  1  0
 30 31  1  0
 31 32  1  0
 32 33  1  0
 33 34  1  0
 27  3  1  0
 34 29  1  0
 12  7  1  0
 21 15  1  0
 26 22  1  0
  4 35  1  0
  5 36  1  0
  8 37  1  0
  9 38  1  0
 11 39  1  0
 13 40  1  0
 14 41  1  0
 14 42  1  0
 16 43  1  0
 17 44  1  0
 20 45  1  0
 26 46  1  0
 27 47  1  0
 30 48  1  0
 30 49  1  0
 31 50  1  0
 31 51  1  0
 33 52  1  0
 33 53  1  0
 34 54  1  0
 34 55  1  0
M  END
$$$$
