
     RDKit          3D

 62 65  0  0  0  0  0  0  0  0999 V2000
    0.6723   -1.7127   -1.5250 C   0  0  0  0  0  0  0  0  0  0  0  0
    1.1169    0.0241   -1.7745 S   0  0  0  0  0  0  0  0  0  0  0  0
    2.0562    0.3936   -0.2648 C   0  0  0  0  0  0  0  0  0  0  0  0
    3.0645   -0.6406    0.1272 C   0  0  0  0  0  0  0  0  0  0  0  0
    4.2402   -0.9997   -0.6654 C   0  0  0  0  0  0  0  0  0  0  0  0
    4.1533   -1.8944   -1.5024 O   0  0  0  0  0  0  0  0  0  0  0  0
    5.4115   -0.3296   -0.3849 N   0  0  0  0  0  0  0  0  0  0  0  0
    5.5855    0.7114    0.6311 C   0  0  0  0  0  0  0  0  0  0  0  0
    6.7529    1.6352    0.2770 C   0  0  0  0  0  0  0  0  0  0  0  0
    8.0039    0.9561    0.1232 O   0  0  0  0  0  0  0  0  0  0  0  0
    7.8816   -0.4057   -0.3055 C   0  0  0  0  0  0  0  0  0  0  0  0
    6.6214   -0.6868   -1.1281 C   0  0  0  0  0  0  0  0  0  0  0  0
    2.7899   -1.1431    1.3411 C   0  0  0  0  0  0  0  0  0  0  0  0
    1.6223   -0.4813    1.8652 C   0  0  0  0  0  0  0  0  0  0  0  0
    1.1725    0.4170    0.9655 C   0  0  0  0  0  0  0  0  0  0  0  0
    0.0945    1.3882    1.1973 C   0  0  0  0  0  0  0  0  0  0  0  0
    0.4141    2.7487    1.0803 C   0  0  0  0  0  0  0  0  0  0  0  0
   -0.5683    3.6948    1.3102 C   0  0  0  0  0  0  0  0  0  0  0  0
   -1.8272    3.3853    1.6605 N   0  0  0  0  0  0  0  0  0  0  0  0
   -2.1178    2.0642    1.7730 C   0  0  0  0  0  0  0  0  0  0  0  0
   -1.2302    1.0100    1.5152 C   0  0  0  0  0  0  0  0  0  0  0  0
   -1.5949   -0.3463    1.6402 N   0  0  0  0  0  0  0  0  0  0  0  0
   -2.9543   -0.7435    1.2477 C   0  0  0  0  0  0  0  0  0  0  0  0
   -3.1558   -0.6157   -0.2685 C   0  0  0  0  0  0  0  0  0  0  0  0
   -4.5479   -0.9886   -0.7171 C   0  0  0  0  0  0  0  0  0  0  0  0
   -4.7972   -2.2764   -1.2173 C   0  0  0  0  0  0  0  0  0  0  0  0
   -6.0791   -2.6450   -1.6331 C   0  0  0  0  0  0  0  0  0  0  0  0
   -7.1195   -1.7265   -1.5520 C   0  0  0  0  0  0  0  0  0  0  0  0
   -8.3801   -2.0522   -1.9462 O   0  0  0  0  0  0  0  0  0  0  0  0
   -6.9056   -0.4489   -1.0567 C   0  0  0  0  0  0  0  0  0  0  0  0
   -5.6233   -0.0875   -0.6374 C   0  0  0  0  0  0  0  0  0  0  0  0
   -5.4480    1.2587   -0.0669 C   0  0  0  0  0  0  0  0  0  0  0  0
   -5.0727    2.2271   -0.9493 N   0  0  0  0  0  0  0  0  0  0  0  0
   -5.6047    1.4601    1.1260 O   0  0  0  0  0  0  0  0  0  0  0  0
    1.5449   -2.3630   -1.6064 H   0  0  0  0  0  0  0  0  0  0  0  0
    0.1803   -1.8640   -0.5600 H   0  0  0  0  0  0  0  0  0  0  0  0
   -0.0321   -2.0030   -2.3087 H   0  0  0  0  0  0  0  0  0  0  0  0
    2.5501    1.3600   -0.3971 H   0  0  0  0  0  0  0  0  0  0  0  0
    4.6692    1.2935    0.7428 H   0  0  0  0  0  0  0  0  0  0  0  0
    5.7856    0.1959    1.5755 H   0  0  0  0  0  0  0  0  0  0  0  0
    6.8845    2.3878    1.0553 H   0  0  0  0  0  0  0  0  0  0  0  0
    6.5436    2.1628   -0.6562 H   0  0  0  0  0  0  0  0  0  0  0  0
    8.7736   -0.6481   -0.8903 H   0  0  0  0  0  0  0  0  0  0  0  0
    7.8974   -1.0320    0.5902 H   0  0  0  0  0  0  0  0  0  0  0  0
    6.6236   -0.0780   -2.0405 H   0  0  0  0  0  0  0  0  0  0  0  0
    6.5863   -1.7405   -1.4231 H   0  0  0  0  0  0  0  0  0  0  0  0
    3.3667   -1.8830    1.8777 H   0  0  0  0  0  0  0  0  0  0  0  0
    1.2268   -0.6468    2.8582 H   0  0  0  0  0  0  0  0  0  0  0  0
    1.4144    3.0810    0.8302 H   0  0  0  0  0  0  0  0  0  0  0  0
   -0.3554    4.7575    1.2266 H   0  0  0  0  0  0  0  0  0  0  0  0
   -3.1398    1.8801    2.0946 H   0  0  0  0  0  0  0  0  0  0  0  0
   -0.8939   -0.9559    1.2298 H   0  0  0  0  0  0  0  0  0  0  0  0
   -3.0851   -1.7955    1.5319 H   0  0  0  0  0  0  0  0  0  0  0  0
   -3.7067   -0.1969    1.8203 H   0  0  0  0  0  0  0  0  0  0  0  0
   -2.9256    0.3959   -0.6142 H   0  0  0  0  0  0  0  0  0  0  0  0
   -2.4281   -1.2543   -0.7816 H   0  0  0  0  0  0  0  0  0  0  0  0
   -3.9944   -3.0069   -1.2820 H   0  0  0  0  0  0  0  0  0  0  0  0
   -6.2460   -3.6488   -2.0133 H   0  0  0  0  0  0  0  0  0  0  0  0
   -8.4038   -2.9812   -2.1965 H   0  0  0  0  0  0  0  0  0  0  0  0
   -7.7312    0.2538   -0.9811 H   0  0  0  0  0  0  0  0  0  0  0  0
   -4.8796    2.0373   -1.9231 H   0  0  0  0  0  0  0  0  0  0  0  0
   -4.8524    3.1423   -0.5810 H   0  0  0  0  0  0  0  0  0  0  0  0
  1  2  1  0
  2  3  1  0
  3  4  1  0
  4  5  1  0
  5  6  2  0
  5  7  1  0
  7  8  1  0
  8  9  1  0
  9 10  1  0
 10 11  1  0
 11 12  1  0
  4 13  2  0
 13 14  1  0
 14 15  2  0
 15 16  1  0
 16 17  2  0
 17 18  1  0
 18 19  2  0
 19 20  1  0
 20 21  2  0
 21 22  1  0
 22 23  1  0
 23 24  1  0
 24 25  1  0
 25 26  2  0
 26 27  1  0
 27 28  2  0
 28 29  1  0
 28 30  1  0
 30 31  2  0
 31 32  1  0
 32 33  1  0
 32 34  2  0
 15  3  1  0
 21 16  1  0
 31 25  1  0
 12  7  1  0
  1 35  1  0
  1 36  1  0
  1 37  1  0
  3 38  1  0
  8 39  1  0
  8 40  1  0
  9 41  1  0
  9 42  1  0
 11 43  1  0
 11 44  1  0
 12 45  1  0
 12 46  1  0
 13 47  1  0
 14 48  1  0
 17 49  1  0
 18 50  1  0
 20 51  1  0
 22 52  1  0
 23 53  1  0
 23 54  1  0
 24 55  1  0
 24 56  1  0
 26 57  1  0
 27 58  1  0
 29 59  1  0
 30 60  1  0
 33 61  1  0
 33 62  1  0
M  END
$$$$
