
     RDKit          3D

 42 44  0  0  0  0  0  0  0  0999 V2000
   -3.5768    2.3876   -0.1895 N   0  0  0  0  0  0  0  0  0  0  0  0
   -2.5515    2.2957   -1.2219 C   0  0  0  0  0  0  0  0  0  0  0  0
   -1.5701    1.1432   -0.9782 C   0  0  0  0  0  0  0  0  0  0  0  0
   -2.2106   -0.2393   -1.1182 C   0  0  0  0  0  0  0  0  0  0  0  0
   -1.3397   -1.4820   -0.8499 C   0  0  0  0  0  0  0  0  0  0  0  0
   -0.2994   -1.8961   -1.8937 C   0  0  0  0  0  0  0  0  0  0  0  0
    0.5802   -0.8921   -2.3409 O   0  0  0  0  0  0  0  0  0  0  0  0
    1.4144   -0.2488   -1.4718 C   0  0  0  0  0  0  0  0  0  0  0  0
    2.3081    0.5652   -2.2047 C   0  0  0  0  0  0  0  0  0  0  0  0
    3.1816    1.4446   -1.5843 C   0  0  0  0  0  0  0  0  0  0  0  0
    3.1138    1.5593   -0.2122 C   0  0  0  0  0  0  0  0  0  0  0  0
    3.8954    2.4738    0.4499 O   0  0  0  0  0  0  0  0  0  0  0  0
    2.2078    0.7863    0.5480 C   0  0  0  0  0  0  0  0  0  0  0  0
    2.2174    1.0204    1.9568 N   0  0  0  0  0  0  0  0  0  0  0  0
    1.4023   -0.2363   -0.0593 C   0  0  0  0  0  0  0  0  0  0  0  0
    0.5948   -1.1590    0.8094 C   0  0  0  0  0  0  0  0  0  0  0  0
    1.1687   -1.6457    2.0136 C   0  0  0  0  0  0  0  0  0  0  0  0
    0.4385   -2.3720    2.9538 C   0  0  0  0  0  0  0  0  0  0  0  0
    1.0151   -2.7851    4.1203 O   0  0  0  0  0  0  0  0  0  0  0  0
   -0.8876   -2.6695    2.7064 C   0  0  0  0  0  0  0  0  0  0  0  0
   -1.6163   -3.3598    3.5947 F   0  0  0  0  0  0  0  0  0  0  0  0
   -1.4643   -2.2948    1.5026 C   0  0  0  0  0  0  0  0  0  0  0  0
   -0.7220   -1.5858    0.5279 C   0  0  0  0  0  0  0  0  0  0  0  0
   -4.1725    3.1931   -0.3779 H   0  0  0  0  0  0  0  0  0  0  0  0
   -4.1867    1.5732   -0.2283 H   0  0  0  0  0  0  0  0  0  0  0  0
   -3.0264    2.1879   -2.2033 H   0  0  0  0  0  0  0  0  0  0  0  0
   -1.9905    3.2368   -1.2342 H   0  0  0  0  0  0  0  0  0  0  0  0
   -0.7723    1.2529   -1.7166 H   0  0  0  0  0  0  0  0  0  0  0  0
   -1.1248    1.2600    0.0158 H   0  0  0  0  0  0  0  0  0  0  0  0
   -2.6317   -0.3277   -2.1283 H   0  0  0  0  0  0  0  0  0  0  0  0
   -3.0641   -0.2944   -0.4304 H   0  0  0  0  0  0  0  0  0  0  0  0
   -2.0598   -2.3156   -0.9011 H   0  0  0  0  0  0  0  0  0  0  0  0
   -0.8424   -2.2234   -2.7895 H   0  0  0  0  0  0  0  0  0  0  0  0
    0.2819   -2.7718   -1.5733 H   0  0  0  0  0  0  0  0  0  0  0  0
    2.2986    0.5130   -3.2929 H   0  0  0  0  0  0  0  0  0  0  0  0
    3.8543    2.0492   -2.1815 H   0  0  0  0  0  0  0  0  0  0  0  0
    4.5114    2.8689   -0.1886 H   0  0  0  0  0  0  0  0  0  0  0  0
    1.2737    1.0160    2.3369 H   0  0  0  0  0  0  0  0  0  0  0  0
    2.7000    1.9017    2.1434 H   0  0  0  0  0  0  0  0  0  0  0  0
    2.2154   -1.4293    2.2234 H   0  0  0  0  0  0  0  0  0  0  0  0
    1.9244   -2.4448    4.1568 H   0  0  0  0  0  0  0  0  0  0  0  0
   -2.4884   -2.6050    1.3107 H   0  0  0  0  0  0  0  0  0  0  0  0
  1  2  1  0
  2  3  1  0
  3  4  1  0
  4  5  1  0
  5  6  1  0
  6  7  1  0
  7  8  1  0
  8  9  2  0
  9 10  1  0
 10 11  2  0
 11 12  1  0
 11 13  1  0
 13 14  1  0
 13 15  2  0
 15 16  1  0
 16 17  2  0
 17 18  1  0
 18 19  1  0
 18 20  2  0
 20 21  1  0
 20 22  1  0
 22 23  2  0
 23  5  1  0
 15  8  1  0
 23 16  1  0
  1 24  1  0
  1 25  1  0
  2 26  1  0
  2 27  1  0
  3 28  1  0
  3 29  1  0
  4 30  1  0
  4 31  1  0
  5 32  1  0
  6 33  1  0
  6 34  1  0
  9 35  1  0
 10 36  1  0
 12 37  1  0
 14 38  1  0
 14 39  1  0
 17 40  1  0
 19 41  1  0
 22 42  1  0
M  END
$$$$
