
     RDKit          3D

 43 45  0  0  0  0  0  0  0  0999 V2000
    4.6177    2.1604    1.3644 N   0  0  0  0  0  0  0  0  0  0  0  0
    3.6733    1.3643    0.5894 C   0  0  0  0  0  0  0  0  0  0  0  0
    3.2465    0.1359    1.3853 C   0  0  0  0  0  0  0  0  0  0  0  0
    2.4183   -0.9009    0.6071 C   0  0  0  0  0  0  0  0  0  0  0  0
    1.0568   -0.3973    0.0681 C   0  0  0  0  0  0  0  0  0  0  0  0
    1.1799    0.2015   -1.3593 C   0  0  0  0  0  0  0  0  0  0  0  0
   -0.0328    0.6175   -2.0207 O   0  0  0  0  0  0  0  0  0  0  0  0
   -0.9454    1.2251   -1.1960 C   0  0  0  0  0  0  0  0  0  0  0  0
   -1.1797    2.5834   -1.4130 C   0  0  0  0  0  0  0  0  0  0  0  0
   -2.0961    3.2596   -0.6162 C   0  0  0  0  0  0  0  0  0  0  0  0
   -2.7662    2.5617    0.3854 C   0  0  0  0  0  0  0  0  0  0  0  0
   -3.6517    3.2166    1.2077 O   0  0  0  0  0  0  0  0  0  0  0  0
   -2.5842    1.1762    0.5865 C   0  0  0  0  0  0  0  0  0  0  0  0
   -3.1478    0.6013    1.7474 N   0  0  0  0  0  0  0  0  0  0  0  0
   -1.6603    0.4826   -0.2264 C   0  0  0  0  0  0  0  0  0  0  0  0
   -1.3954   -0.9712   -0.1012 C   0  0  0  0  0  0  0  0  0  0  0  0
   -2.4461   -1.9020   -0.2066 C   0  0  0  0  0  0  0  0  0  0  0  0
   -2.1888   -3.2692   -0.1518 C   0  0  0  0  0  0  0  0  0  0  0  0
   -3.2124   -4.1701   -0.2487 O   0  0  0  0  0  0  0  0  0  0  0  0
   -0.8831   -3.7299   -0.0141 C   0  0  0  0  0  0  0  0  0  0  0  0
   -0.6504   -5.0767    0.0244 O   0  0  0  0  0  0  0  0  0  0  0  0
    0.1791   -2.8292    0.0632 C   0  0  0  0  0  0  0  0  0  0  0  0
   -0.0621   -1.4445    0.0339 C   0  0  0  0  0  0  0  0  0  0  0  0
    4.8477    3.0115    0.8529 H   0  0  0  0  0  0  0  0  0  0  0  0
    4.1831    2.4607    2.2367 H   0  0  0  0  0  0  0  0  0  0  0  0
    4.1471    1.0642   -0.3506 H   0  0  0  0  0  0  0  0  0  0  0  0
    2.8058    1.9892    0.3584 H   0  0  0  0  0  0  0  0  0  0  0  0
    4.1417   -0.3778    1.7613 H   0  0  0  0  0  0  0  0  0  0  0  0
    2.6803    0.4525    2.2711 H   0  0  0  0  0  0  0  0  0  0  0  0
    2.2532   -1.7152    1.3235 H   0  0  0  0  0  0  0  0  0  0  0  0
    3.0210   -1.3222   -0.2070 H   0  0  0  0  0  0  0  0  0  0  0  0
    0.7306    0.3842    0.7679 H   0  0  0  0  0  0  0  0  0  0  0  0
    1.8550    1.0608   -1.3707 H   0  0  0  0  0  0  0  0  0  0  0  0
    1.6295   -0.5476   -2.0232 H   0  0  0  0  0  0  0  0  0  0  0  0
   -0.6410    3.1081   -2.1968 H   0  0  0  0  0  0  0  0  0  0  0  0
   -2.2657    4.3186   -0.7795 H   0  0  0  0  0  0  0  0  0  0  0  0
   -3.6046    4.1668    1.0148 H   0  0  0  0  0  0  0  0  0  0  0  0
   -3.2887   -0.3997    1.7215 H   0  0  0  0  0  0  0  0  0  0  0  0
   -3.9559    1.1346    2.0643 H   0  0  0  0  0  0  0  0  0  0  0  0
   -3.4610   -1.5442   -0.3564 H   0  0  0  0  0  0  0  0  0  0  0  0
   -4.0367   -3.6951   -0.4333 H   0  0  0  0  0  0  0  0  0  0  0  0
    0.2974   -5.2327    0.1508 H   0  0  0  0  0  0  0  0  0  0  0  0
    1.1918   -3.2120    0.1268 H   0  0  0  0  0  0  0  0  0  0  0  0
  1  2  1  0
  2  3  1  0
  3  4  1  0
  4  5  1  0
  5  6  1  0
  6  7  1  0
  7  8  1  0
  8  9  2  0
  9 10  1  0
 10 11  2  0
 11 12  1  0
 11 13  1  0
 13 14  1  0
 13 15  2  0
 15 16  1  0
 16 17  2  0
 17 18  1  0
 18 19  1  0
 18 20  2  0
 20 21  1  0
 20 22  1  0
 22 23  2  0
 23  5  1  0
 15  8  1  0
 23 16  1  0
  1 24  1  0
  1 25  1  0
  2 26  1  0
  2 27  1  0
  3 28  1  0
  3 29  1  0
  4 30  1  0
  4 31  1  0
  5 32  1  0
  6 33  1  0
  6 34  1  0
  9 35  1  0
 10 36  1  0
 12 37  1  0
 14 38  1  0
 14 39  1  0
 17 40  1  0
 19 41  1  0
 21 42  1  0
 22 43  1  0
M  END
$$$$
