
     RDKit          3D

 53 55  0  0  0  0  0  0  0  0999 V2000
    5.6574    1.9839    1.9224 C   0  0  0  0  0  0  0  0  0  0  0  0
    4.8737    1.1306    0.9679 C   0  0  0  0  0  0  0  0  0  0  0  0
    3.5319    1.3637    0.9623 N   0  0  0  0  0  0  0  0  0  0  0  0
    2.7358    0.6582    0.1215 C   0  0  0  0  0  0  0  0  0  0  0  0
    1.2970    0.9871    0.1781 C   0  0  0  0  0  0  0  0  0  0  0  0
    0.2956    0.0233   -0.0368 C   0  0  0  0  0  0  0  0  0  0  0  0
   -1.0677    0.3506    0.0332 C   0  0  0  0  0  0  0  0  0  0  0  0
   -1.4630    1.6531    0.3251 C   0  0  0  0  0  0  0  0  0  0  0  0
   -2.7463    2.1088    0.4191 O   0  0  0  0  0  0  0  0  0  0  0  0
   -3.8031    1.1531    0.5499 C   0  0  0  0  0  0  0  0  0  0  0  0
   -4.4159    0.8359   -0.8260 C   0  0  0  0  0  0  0  0  0  0  0  0
   -5.5502   -0.0944   -0.8630 N   0  0  0  0  0  0  0  0  0  0  0  0
   -5.2582   -1.4477   -0.3609 C   0  0  0  0  0  0  0  0  0  0  0  0
   -5.9678   -1.7766    0.9635 C   0  0  0  0  0  0  0  0  0  0  0  0
   -7.3926   -1.6399    0.8972 O   0  0  0  0  0  0  0  0  0  0  0  0
   -7.8251   -0.6545   -0.0529 C   0  0  0  0  0  0  0  0  0  0  0  0
   -6.7851    0.4546   -0.2793 C   0  0  0  0  0  0  0  0  0  0  0  0
   -0.4848    2.6249    0.5286 C   0  0  0  0  0  0  0  0  0  0  0  0
    0.8733    2.2959    0.4655 C   0  0  0  0  0  0  0  0  0  0  0  0
    3.2641   -0.3047   -0.7272 C   0  0  0  0  0  0  0  0  0  0  0  0
    4.6362   -0.5699   -0.7073 C   0  0  0  0  0  0  0  0  0  0  0  0
    5.1236   -1.5731   -1.5722 N   0  0  0  0  0  0  0  0  0  0  0  0
    5.1907   -2.7856   -1.1291 C   0  0  0  0  0  0  0  0  0  0  0  0
    4.8771   -3.2957    0.0958 N   0  0  0  0  0  0  0  0  0  0  0  0
    5.4677    0.1739    0.1424 C   0  0  0  0  0  0  0  0  0  0  0  0
    6.9343   -0.0480    0.1821 C   0  0  0  0  0  0  0  0  0  0  0  0
    7.5569   -0.2970   -1.0088 N   0  0  0  0  0  0  0  0  0  0  0  0
    7.5689   -0.0136    1.2283 O   0  0  0  0  0  0  0  0  0  0  0  0
    6.0256    1.3816    2.7577 H   0  0  0  0  0  0  0  0  0  0  0  0
    5.0238    2.7746    2.3389 H   0  0  0  0  0  0  0  0  0  0  0  0
    6.4950    2.4723    1.4154 H   0  0  0  0  0  0  0  0  0  0  0  0
    0.5615   -1.0107   -0.2485 H   0  0  0  0  0  0  0  0  0  0  0  0
   -1.7877   -0.4388   -0.1527 H   0  0  0  0  0  0  0  0  0  0  0  0
   -4.5563    1.6342    1.1811 H   0  0  0  0  0  0  0  0  0  0  0  0
   -3.4838    0.2588    1.0954 H   0  0  0  0  0  0  0  0  0  0  0  0
   -4.7124    1.7806   -1.3028 H   0  0  0  0  0  0  0  0  0  0  0  0
   -3.6316    0.4461   -1.4872 H   0  0  0  0  0  0  0  0  0  0  0  0
   -4.1810   -1.6273   -0.2668 H   0  0  0  0  0  0  0  0  0  0  0  0
   -5.6195   -2.1505   -1.1229 H   0  0  0  0  0  0  0  0  0  0  0  0
   -5.6027   -1.1290    1.7681 H   0  0  0  0  0  0  0  0  0  0  0  0
   -5.7526   -2.8095    1.2564 H   0  0  0  0  0  0  0  0  0  0  0  0
   -8.0610   -1.1675   -0.9930 H   0  0  0  0  0  0  0  0  0  0  0  0
   -8.7578   -0.2233    0.3249 H   0  0  0  0  0  0  0  0  0  0  0  0
   -6.5855    0.9320    0.6867 H   0  0  0  0  0  0  0  0  0  0  0  0
   -7.1980    1.2132   -0.9525 H   0  0  0  0  0  0  0  0  0  0  0  0
   -0.7765    3.6485    0.7486 H   0  0  0  0  0  0  0  0  0  0  0  0
    1.6104    3.0781    0.6429 H   0  0  0  0  0  0  0  0  0  0  0  0
    2.6326   -0.8496   -1.4190 H   0  0  0  0  0  0  0  0  0  0  0  0
    5.5513   -3.5690   -1.8184 H   0  0  0  0  0  0  0  0  0  0  0  0
    5.3791   -4.1317    0.3782 H   0  0  0  0  0  0  0  0  0  0  0  0
    4.7747   -2.6284    0.8529 H   0  0  0  0  0  0  0  0  0  0  0  0
    7.0011   -0.6013   -1.8039 H   0  0  0  0  0  0  0  0  0  0  0  0
    8.5267   -0.5806   -0.9736 H   0  0  0  0  0  0  0  0  0  0  0  0
  1  2  1  0
  2  3  2  0
  3  4  1  0
  4  5  1  0
  5  6  2  0
  6  7  1  0
  7  8  2  0
  8  9  1  0
  9 10  1  0
 10 11  1  0
 11 12  1  0
 12 13  1  0
 13 14  1  0
 14 15  1  0
 15 16  1  0
 16 17  1  0
  8 18  1  0
 18 19  2  0
  4 20  2  0
 20 21  1  0
 21 22  1  0
 22 23  2  3
 23 24  1  0
 21 25  2  0
 25 26  1  0
 26 27  1  0
 26 28  2  0
 25  2  1  0
 19  5  1  0
 17 12  1  0
  1 29  1  0
  1 30  1  0
  1 31  1  0
  6 32  1  0
  7 33  1  0
 10 34  1  0
 10 35  1  0
 11 36  1  0
 11 37  1  0
 13 38  1  0
 13 39  1  0
 14 40  1  0
 14 41  1  0
 16 42  1  0
 16 43  1  0
 17 44  1  0
 17 45  1  0
 18 46  1  0
 19 47  1  0
 20 48  1  0
 23 49  1  0
 24 50  1  0
 24 51  1  0
 27 52  1  0
 27 53  1  0
M  END
$$$$
