
     RDKit          3D

 56 59  0  0  0  0  0  0  0  0999 V2000
    9.6480    1.4474    1.5530 C   0  0  0  0  0  0  0  0  0  0  0  0
    8.4333    1.0878    0.8781 N   0  0  0  0  0  0  0  0  0  0  0  0
    7.2005    1.2910    1.4608 C   0  0  0  0  0  0  0  0  0  0  0  0
    7.0641    1.7850    2.5739 O   0  0  0  0  0  0  0  0  0  0  0  0
    6.0010    0.8831    0.6823 C   0  0  0  0  0  0  0  0  0  0  0  0
    4.7461    0.9239    1.3142 C   0  0  0  0  0  0  0  0  0  0  0  0
    3.5941    0.4949    0.6379 C   0  0  0  0  0  0  0  0  0  0  0  0
    3.6755    0.0158   -0.6798 C   0  0  0  0  0  0  0  0  0  0  0  0
    2.5297   -0.3540   -1.4250 N   0  0  0  0  0  0  0  0  0  0  0  0
    1.4759   -1.0332   -0.8971 C   0  0  0  0  0  0  0  0  0  0  0  0
    0.2306   -0.7215   -1.1857 N   0  0  0  0  0  0  0  0  0  0  0  0
   -0.6402   -1.5341   -0.4853 C   0  0  0  0  0  0  0  0  0  0  0  0
   -0.0342   -2.5495    0.2248 C   0  0  0  0  0  0  0  0  0  0  0  0
    1.6518   -2.4250    0.1225 S   0  0  0  0  0  0  0  0  0  0  0  0
   -0.7541   -3.5974    0.9953 C   0  0  0  0  0  0  0  0  0  0  0  0
   -2.1647   -3.7536    0.4045 C   0  0  0  0  0  0  0  0  0  0  0  0
   -2.8797   -2.3927    0.3095 C   0  0  0  0  0  0  0  0  0  0  0  0
   -2.1344   -1.3644   -0.5841 C   0  0  0  0  0  0  0  0  0  0  0  0
   -2.5500    0.0452   -0.1536 C   0  0  0  0  0  0  0  0  0  0  0  0
   -1.9395    0.6417    0.7392 O   0  0  0  0  0  0  0  0  0  0  0  0
   -3.6743    0.6185   -0.7393 N   0  0  0  0  0  0  0  0  0  0  0  0
   -4.5890   -0.0088   -1.6979 C   0  0  0  0  0  0  0  0  0  0  0  0
   -6.0607    0.3091   -1.3412 C   0  0  0  0  0  0  0  0  0  0  0  0
   -6.3852    1.7539   -1.2262 N   0  0  0  0  0  0  0  0  0  0  0  0
   -7.2561    1.9908   -0.0603 C   0  0  0  0  0  0  0  0  0  0  0  0
   -5.1655    2.5911   -1.1725 C   0  0  0  0  0  0  0  0  0  0  0  0
   -4.0049    1.9951   -0.3515 C   0  0  0  0  0  0  0  0  0  0  0  0
    4.9193    0.0346   -1.3257 C   0  0  0  0  0  0  0  0  0  0  0  0
    6.0663    0.4491   -0.6446 C   0  0  0  0  0  0  0  0  0  0  0  0
    7.2352    0.4241   -1.3125 F   0  0  0  0  0  0  0  0  0  0  0  0
    9.6670    2.5350    1.6879 H   0  0  0  0  0  0  0  0  0  0  0  0
   10.5040    1.1283    0.9468 H   0  0  0  0  0  0  0  0  0  0  0  0
    9.6762    0.9576    2.5320 H   0  0  0  0  0  0  0  0  0  0  0  0
    8.4852    0.7674   -0.0907 H   0  0  0  0  0  0  0  0  0  0  0  0
    4.6572    1.2815    2.3426 H   0  0  0  0  0  0  0  0  0  0  0  0
    2.6337    0.5566    1.1524 H   0  0  0  0  0  0  0  0  0  0  0  0
    2.2008    0.4451   -1.9634 H   0  0  0  0  0  0  0  0  0  0  0  0
   -0.2299   -4.5586    0.9763 H   0  0  0  0  0  0  0  0  0  0  0  0
   -0.8341   -3.2718    2.0414 H   0  0  0  0  0  0  0  0  0  0  0  0
   -2.7405   -4.4417    1.0281 H   0  0  0  0  0  0  0  0  0  0  0  0
   -2.1099   -4.1882   -0.6001 H   0  0  0  0  0  0  0  0  0  0  0  0
   -2.9907   -1.9892    1.3267 H   0  0  0  0  0  0  0  0  0  0  0  0
   -3.9005   -2.5405   -0.0553 H   0  0  0  0  0  0  0  0  0  0  0  0
   -2.3861   -1.5307   -1.6384 H   0  0  0  0  0  0  0  0  0  0  0  0
   -4.3396    0.3803   -2.6911 H   0  0  0  0  0  0  0  0  0  0  0  0
   -4.4583   -1.0916   -1.7250 H   0  0  0  0  0  0  0  0  0  0  0  0
   -6.7214   -0.1234   -2.1011 H   0  0  0  0  0  0  0  0  0  0  0  0
   -6.2816   -0.2123   -0.3966 H   0  0  0  0  0  0  0  0  0  0  0  0
   -6.7524    1.7656    0.8948 H   0  0  0  0  0  0  0  0  0  0  0  0
   -8.1616    1.3776   -0.1301 H   0  0  0  0  0  0  0  0  0  0  0  0
   -7.5844    3.0444   -0.0188 H   0  0  0  0  0  0  0  0  0  0  0  0
   -4.8223    2.7324   -2.2071 H   0  0  0  0  0  0  0  0  0  0  0  0
   -5.3982    3.6005   -0.8101 H   0  0  0  0  0  0  0  0  0  0  0  0
   -3.1050    2.6163   -0.4789 H   0  0  0  0  0  0  0  0  0  0  0  0
   -4.2565    1.9907    0.7190 H   0  0  0  0  0  0  0  0  0  0  0  0
    5.0098   -0.2791   -2.3634 H   0  0  0  0  0  0  0  0  0  0  0  0
  1  2  1  0
  2  3  1  0
  3  4  2  0
  3  5  1  0
  5  6  2  0
  6  7  1  0
  7  8  2  0
  8  9  1  0
  9 10  1  0
 10 11  2  0
 11 12  1  0
 12 13  2  0
 13 14  1  0
 13 15  1  0
 15 16  1  0
 16 17  1  0
 17 18  1  0
 18 19  1  0
 19 20  2  0
 19 21  1  0
 21 22  1  0
 22 23  1  0
 23 24  1  0
 24 25  1  0
 24 26  1  0
 26 27  1  0
  8 28  1  0
 28 29  2  0
 29 30  1  0
 29  5  1  0
 14 10  1  0
 27 21  1  0
 18 12  1  0
  1 31  1  0
  1 32  1  0
  1 33  1  0
  2 34  1  0
  6 35  1  0
  7 36  1  0
  9 37  1  0
 15 38  1  0
 15 39  1  0
 16 40  1  0
 16 41  1  0
 17 42  1  0
 17 43  1  0
 18 44  1  0
 22 45  1  0
 22 46  1  0
 23 47  1  0
 23 48  1  0
 25 49  1  0
 25 50  1  0
 25 51  1  0
 26 52  1  0
 26 53  1  0
 27 54  1  0
 27 55  1  0
 28 56  1  0
M  END
$$$$
