
     RDKit          3D

 44 46  0  0  0  0  0  0  0  0999 V2000
   -2.9888    4.9994    0.0156 C   0  0  0  0  0  0  0  0  0  0  0  0
   -2.7246    3.5886    0.2114 N   0  0  0  0  0  0  0  0  0  0  0  0
   -1.4870    2.9929    0.0311 C   0  0  0  0  0  0  0  0  0  0  0  0
   -1.1877    1.6911   -0.0234 C   0  0  0  0  0  0  0  0  0  0  0  0
   -1.9785    0.5605    0.1163 N   0  0  0  0  0  0  0  0  0  0  0  0
   -2.1682   -0.3565   -1.0065 C   0  0  0  0  0  0  0  0  0  0  0  0
   -2.8841   -1.5855   -0.5165 C   0  0  0  0  0  0  0  0  0  0  0  0
   -2.1957   -2.5861    0.1780 C   0  0  0  0  0  0  0  0  0  0  0  0
   -2.9013   -3.6924    0.6278 C   0  0  0  0  0  0  0  0  0  0  0  0
   -4.2255   -3.8664    0.4392 N   0  0  0  0  0  0  0  0  0  0  0  0
   -4.8704   -2.8876   -0.2247 C   0  0  0  0  0  0  0  0  0  0  0  0
   -6.1886   -3.0342   -0.4199 F   0  0  0  0  0  0  0  0  0  0  0  0
   -4.2583   -1.7449   -0.7130 C   0  0  0  0  0  0  0  0  0  0  0  0
    0.2935    1.6293   -0.2015 C   0  0  0  0  0  0  0  0  0  0  0  0
    0.9361    0.4187   -0.1862 N   0  0  0  0  0  0  0  0  0  0  0  0
    2.3060    0.1121   -0.2695 C   0  0  0  0  0  0  0  0  0  0  0  0
    3.3063    1.0372   -0.5680 C   0  0  0  0  0  0  0  0  0  0  0  0
    4.6439    0.6369   -0.6627 C   0  0  0  0  0  0  0  0  0  0  0  0
    5.0050   -0.6998   -0.4721 C   0  0  0  0  0  0  0  0  0  0  0  0
    4.0263   -1.6502   -0.1888 C   0  0  0  0  0  0  0  0  0  0  0  0
    4.2437   -2.9866    0.0104 O   0  0  0  0  0  0  0  0  0  0  0  0
    5.5891   -3.4414   -0.0592 C   0  0  0  0  0  0  0  0  0  0  0  0
    2.6934   -1.2303   -0.0972 C   0  0  0  0  0  0  0  0  0  0  0  0
    1.7310   -2.1351    0.1680 F   0  0  0  0  0  0  0  0  0  0  0  0
    0.8206    2.8072   -0.3356 N   0  0  0  0  0  0  0  0  0  0  0  0
   -0.1936    3.7210   -0.2133 C   0  0  0  0  0  0  0  0  0  0  0  0
   -0.0825    4.9335   -0.3045 O   0  0  0  0  0  0  0  0  0  0  0  0
   -2.3915    5.6108    0.6988 H   0  0  0  0  0  0  0  0  0  0  0  0
   -2.7840    5.2958   -1.0177 H   0  0  0  0  0  0  0  0  0  0  0  0
   -4.0432    5.2050    0.2246 H   0  0  0  0  0  0  0  0  0  0  0  0
   -3.5155    2.9741    0.0573 H   0  0  0  0  0  0  0  0  0  0  0  0
   -2.8863    0.8285    0.4966 H   0  0  0  0  0  0  0  0  0  0  0  0
   -1.2147   -0.6514   -1.4589 H   0  0  0  0  0  0  0  0  0  0  0  0
   -2.7516    0.1372   -1.7935 H   0  0  0  0  0  0  0  0  0  0  0  0
   -1.1299   -2.5107    0.3725 H   0  0  0  0  0  0  0  0  0  0  0  0
   -2.4014   -4.4907    1.1703 H   0  0  0  0  0  0  0  0  0  0  0  0
   -4.8565   -1.0069   -1.2342 H   0  0  0  0  0  0  0  0  0  0  0  0
    0.3754   -0.3583    0.1530 H   0  0  0  0  0  0  0  0  0  0  0  0
    3.0733    2.0855   -0.7335 H   0  0  0  0  0  0  0  0  0  0  0  0
    5.4080    1.3779   -0.8899 H   0  0  0  0  0  0  0  0  0  0  0  0
    6.0546   -0.9612   -0.5565 H   0  0  0  0  0  0  0  0  0  0  0  0
    5.5878   -4.5193    0.1297 H   0  0  0  0  0  0  0  0  0  0  0  0
    6.2062   -2.9689    0.7121 H   0  0  0  0  0  0  0  0  0  0  0  0
    6.0092   -3.2788   -1.0572 H   0  0  0  0  0  0  0  0  0  0  0  0
  1  2  1  0
  2  3  1  0
  3  4  2  0
  4  5  1  0
  5  6  1  0
  6  7  1  0
  7  8  2  0
  8  9  1  0
  9 10  2  0
 10 11  1  0
 11 12  1  0
 11 13  2  0
  4 14  1  0
 14 15  1  0
 15 16  1  0
 16 17  2  0
 17 18  1  0
 18 19  2  0
 19 20  1  0
 20 21  1  0
 21 22  1  0
 20 23  2  0
 23 24  1  0
 14 25  2  0
 25 26  1  0
 26 27  2  0
 26  3  1  0
 13  7  1  0
 23 16  1  0
  1 28  1  0
  1 29  1  0
  1 30  1  0
  2 31  1  0
  5 32  1  0
  6 33  1  0
  6 34  1  0
  8 35  1  0
  9 36  1  0
 13 37  1  0
 15 38  1  0
 17 39  1  0
 18 40  1  0
 19 41  1  0
 22 42  1  0
 22 43  1  0
 22 44  1  0
M  END
$$$$
