
     RDKit          3D

 52 53  0  0  0  0  0  0  0  0999 V2000
    8.4577    0.9305   -0.6753 C   0  0  0  0  0  0  0  0  0  0  0  0
    7.3322    1.5502    0.1388 C   0  0  0  0  0  0  0  0  0  0  0  0
    7.0950    0.8490    1.4799 C   0  0  0  0  0  0  0  0  0  0  0  0
    6.5506   -0.5821    1.3796 C   0  0  0  0  0  0  0  0  0  0  0  0
    5.1446   -0.6614    0.8319 C   0  0  0  0  0  0  0  0  0  0  0  0
    4.0698   -0.2303    1.6217 C   0  0  0  0  0  0  0  0  0  0  0  0
    2.7556   -0.2825    1.1434 C   0  0  0  0  0  0  0  0  0  0  0  0
    2.4876   -0.7636   -0.1374 C   0  0  0  0  0  0  0  0  0  0  0  0
    1.1892   -0.8615   -0.6829 N   0  0  0  0  0  0  0  0  0  0  0  0
    0.0176   -0.3213   -0.1696 C   0  0  0  0  0  0  0  0  0  0  0  0
   -0.0501    0.4301    0.7931 O   0  0  0  0  0  0  0  0  0  0  0  0
   -1.0706   -0.7645   -0.9102 N   0  0  0  0  0  0  0  0  0  0  0  0
   -2.4091   -0.3357   -0.7966 C   0  0  0  0  0  0  0  0  0  0  0  0
   -3.3834   -1.0834   -1.4719 C   0  0  0  0  0  0  0  0  0  0  0  0
   -4.7334   -0.7170   -1.4172 C   0  0  0  0  0  0  0  0  0  0  0  0
   -5.1219    0.4094   -0.6850 C   0  0  0  0  0  0  0  0  0  0  0  0
   -6.5428    0.8422   -0.6029 C   0  0  0  0  0  0  0  0  0  0  0  0
   -6.8221    2.0275   -0.4749 O   0  0  0  0  0  0  0  0  0  0  0  0
   -7.4880   -0.1625   -0.6405 N   0  0  0  0  0  0  0  0  0  0  0  0
   -8.9000    0.1340   -0.4952 C   0  0  0  0  0  0  0  0  0  0  0  0
   -9.3018    0.4704    0.9423 C   0  0  0  0  0  0  0  0  0  0  0  0
  -10.7201    0.4755    1.0816 O   0  0  0  0  0  0  0  0  0  0  0  0
   -4.1504    1.1744   -0.0338 C   0  0  0  0  0  0  0  0  0  0  0  0
   -2.8023    0.8004   -0.0863 C   0  0  0  0  0  0  0  0  0  0  0  0
    3.5548   -1.2057   -0.9300 C   0  0  0  0  0  0  0  0  0  0  0  0
    4.8657   -1.1499   -0.4466 C   0  0  0  0  0  0  0  0  0  0  0  0
    5.8997   -1.5786   -1.2311 O   0  0  0  0  0  0  0  0  0  0  0  0
    8.2212   -0.0915   -0.9822 H   0  0  0  0  0  0  0  0  0  0  0  0
    8.6315    1.5179   -1.5827 H   0  0  0  0  0  0  0  0  0  0  0  0
    9.3904    0.9107   -0.1026 H   0  0  0  0  0  0  0  0  0  0  0  0
    6.4127    1.5682   -0.4560 H   0  0  0  0  0  0  0  0  0  0  0  0
    7.5923    2.5966    0.3404 H   0  0  0  0  0  0  0  0  0  0  0  0
    8.0402    0.8227    2.0366 H   0  0  0  0  0  0  0  0  0  0  0  0
    6.4073    1.4638    2.0739 H   0  0  0  0  0  0  0  0  0  0  0  0
    7.2370   -1.2133    0.8053 H   0  0  0  0  0  0  0  0  0  0  0  0
    6.5401   -1.0219    2.3861 H   0  0  0  0  0  0  0  0  0  0  0  0
    4.2467    0.1516    2.6254 H   0  0  0  0  0  0  0  0  0  0  0  0
    1.9631    0.0550    1.8047 H   0  0  0  0  0  0  0  0  0  0  0  0
    1.1297   -1.2065   -1.6281 H   0  0  0  0  0  0  0  0  0  0  0  0
   -0.9152   -1.6025   -1.4489 H   0  0  0  0  0  0  0  0  0  0  0  0
   -3.1071   -1.9594   -2.0533 H   0  0  0  0  0  0  0  0  0  0  0  0
   -5.4609   -1.3001   -1.9745 H   0  0  0  0  0  0  0  0  0  0  0  0
   -7.1892   -1.1220   -0.5321 H   0  0  0  0  0  0  0  0  0  0  0  0
   -9.4530   -0.7431   -0.8489 H   0  0  0  0  0  0  0  0  0  0  0  0
   -9.1639    0.9664   -1.1578 H   0  0  0  0  0  0  0  0  0  0  0  0
   -8.8926   -0.2611    1.6475 H   0  0  0  0  0  0  0  0  0  0  0  0
   -8.9260    1.4565    1.2323 H   0  0  0  0  0  0  0  0  0  0  0  0
  -11.0328   -0.4367    0.9606 H   0  0  0  0  0  0  0  0  0  0  0  0
   -4.4362    2.0676    0.5192 H   0  0  0  0  0  0  0  0  0  0  0  0
   -2.0815    1.4299    0.4282 H   0  0  0  0  0  0  0  0  0  0  0  0
    3.3665   -1.5910   -1.9266 H   0  0  0  0  0  0  0  0  0  0  0  0
    5.5556   -1.8514   -2.0961 H   0  0  0  0  0  0  0  0  0  0  0  0
  1  2  1  0
  2  3  1  0
  3  4  1  0
  4  5  1  0
  5  6  2  0
  6  7  1  0
  7  8  2  0
  8  9  1  0
  9 10  1  0
 10 11  2  0
 10 12  1  0
 12 13  1  0
 13 14  2  0
 14 15  1  0
 15 16  2  0
 16 17  1  0
 17 18  2  0
 17 19  1  0
 19 20  1  0
 20 21  1  0
 21 22  1  0
 16 23  1  0
 23 24  2  0
  8 25  1  0
 25 26  2  0
 26 27  1  0
 26  5  1  0
 24 13  1  0
  1 28  1  0
  1 29  1  0
  1 30  1  0
  2 31  1  0
  2 32  1  0
  3 33  1  0
  3 34  1  0
  4 35  1  0
  4 36  1  0
  6 37  1  0
  7 38  1  0
  9 39  1  0
 12 40  1  0
 14 41  1  0
 15 42  1  0
 19 43  1  0
 20 44  1  0
 20 45  1  0
 21 46  1  0
 21 47  1  0
 22 48  1  0
 23 49  1  0
 24 50  1  0
 25 51  1  0
 27 52  1  0
M  END
$$$$
