
     RDKit          3D

 37 38  0  0  0  0  0  0  0  0999 V2000
    5.3510   -2.6518    0.1837 O   0  0  0  0  0  0  0  0  0  0  0  0
    4.7760   -1.5986   -0.0321 C   0  0  0  0  0  0  0  0  0  0  0  0
    5.3767   -0.6070   -0.7002 O   0  0  0  0  0  0  0  0  0  0  0  0
    3.4292   -1.2885    0.4716 C   0  0  0  0  0  0  0  0  0  0  0  0
    2.5427   -0.3413    0.0980 C   0  0  0  0  0  0  0  0  0  0  0  0
    2.7416    0.5554   -1.0324 C   0  0  0  0  0  0  0  0  0  0  0  0
    2.1558    1.7447   -1.2437 C   0  0  0  0  0  0  0  0  0  0  0  0
    1.2789    2.5223   -0.3024 C   0  0  0  0  0  0  0  0  0  0  0  0
   -0.1691    2.1024   -0.2624 C   0  0  0  0  0  0  0  0  0  0  0  0
   -1.1469    3.2146   -0.3080 C   0  0  0  0  0  0  0  0  0  0  0  0
   -2.2524    3.1884   -0.8237 O   0  0  0  0  0  0  0  0  0  0  0  0
   -0.7068    4.3111    0.3324 O   0  0  0  0  0  0  0  0  0  0  0  0
   -0.6700    0.8408   -0.1911 C   0  0  0  0  0  0  0  0  0  0  0  0
   -2.0265    0.5607   -0.2684 N   0  0  0  0  0  0  0  0  0  0  0  0
   -2.7015   -0.6579   -0.0788 C   0  0  0  0  0  0  0  0  0  0  0  0
   -3.7671   -0.9666   -0.9420 C   0  0  0  0  0  0  0  0  0  0  0  0
   -4.4438   -2.1854   -0.8426 C   0  0  0  0  0  0  0  0  0  0  0  0
   -4.0569   -3.1075    0.1215 C   0  0  0  0  0  0  0  0  0  0  0  0
   -4.7079   -4.2739    0.2170 F   0  0  0  0  0  0  0  0  0  0  0  0
   -3.0123   -2.8343    0.9900 C   0  0  0  0  0  0  0  0  0  0  0  0
   -2.3425   -1.6178    0.8834 C   0  0  0  0  0  0  0  0  0  0  0  0
   -1.3829   -1.3586    1.7857 F   0  0  0  0  0  0  0  0  0  0  0  0
    0.1399   -0.2800   -0.1438 O   0  0  0  0  0  0  0  0  0  0  0  0
    1.2033   -0.2774    0.8128 C   0  0  0  0  0  0  0  0  0  0  0  0
    6.2572   -0.9740   -0.9212 H   0  0  0  0  0  0  0  0  0  0  0  0
    3.1578   -1.9751    1.2710 H   0  0  0  0  0  0  0  0  0  0  0  0
    3.4076    0.1958   -1.8162 H   0  0  0  0  0  0  0  0  0  0  0  0
    2.3891    2.2524   -2.1793 H   0  0  0  0  0  0  0  0  0  0  0  0
    1.6999    2.5270    0.7099 H   0  0  0  0  0  0  0  0  0  0  0  0
    1.3620    3.5658   -0.6353 H   0  0  0  0  0  0  0  0  0  0  0  0
   -1.4478    4.9480    0.2540 H   0  0  0  0  0  0  0  0  0  0  0  0
   -2.5951    1.3165   -0.6541 H   0  0  0  0  0  0  0  0  0  0  0  0
   -4.0651   -0.2599   -1.7136 H   0  0  0  0  0  0  0  0  0  0  0  0
   -5.2629   -2.4207   -1.5150 H   0  0  0  0  0  0  0  0  0  0  0  0
   -2.7250   -3.5518    1.7488 H   0  0  0  0  0  0  0  0  0  0  0  0
    1.0598   -1.1772    1.4234 H   0  0  0  0  0  0  0  0  0  0  0  0
    1.1540    0.5592    1.5191 H   0  0  0  0  0  0  0  0  0  0  0  0
  1  2  2  0
  2  3  1  0
  2  4  1  0
  4  5  2  3
  5  6  1  0
  6  7  2  3
  7  8  1  0
  8  9  1  0
  9 10  1  0
 10 11  2  0
 10 12  1  0
  9 13  2  3
 13 14  1  0
 14 15  1  0
 15 16  2  0
 16 17  1  0
 17 18  2  0
 18 19  1  0
 18 20  1  0
 20 21  2  0
 21 22  1  0
 13 23  1  0
 23 24  1  0
 24  5  1  0
 21 15  1  0
  3 25  1  0
  4 26  1  0
  6 27  1  0
  7 28  1  0
  8 29  1  0
  8 30  1  0
 12 31  1  0
 14 32  1  0
 16 33  1  0
 17 34  1  0
 20 35  1  0
 24 36  1  0
 24 37  1  0
M  END
$$$$
