
     RDKit          3D

 52 53  0  0  0  0  0  0  0  0999 V2000
    6.0334   -0.3108   -1.5575 C   0  0  0  0  0  0  0  0  0  0  0  0
    6.2113   -0.0123   -0.0807 C   0  0  0  0  0  0  0  0  0  0  0  0
    5.0983   -0.5256    0.6660 O   0  0  0  0  0  0  0  0  0  0  0  0
    4.0132    0.2978    0.7576 C   0  0  0  0  0  0  0  0  0  0  0  0
    3.9391    1.4137    0.2669 O   0  0  0  0  0  0  0  0  0  0  0  0
    2.9437   -0.3868    1.5852 C   0  0  0  0  0  0  0  0  0  0  0  0
    1.5124    0.1855    1.4775 C   0  0  0  0  0  0  0  0  0  0  0  0
    1.4274    1.6027    2.0482 C   0  0  0  0  0  0  0  0  0  0  0  0
    0.9713    0.0841    0.0389 C   0  0  0  0  0  0  0  0  0  0  0  0
   -0.4868    0.5522   -0.2702 C   0  0  0  0  0  0  0  0  0  0  0  0
   -0.5912    0.5730   -1.8116 C   0  0  0  0  0  0  0  0  0  0  0  0
   -1.8352    1.3071   -2.2595 C   0  0  0  0  0  0  0  0  0  0  0  0
   -3.0761    0.7876   -1.5964 C   0  0  0  0  0  0  0  0  0  0  0  0
   -4.3057    1.0947   -2.2146 C   0  0  0  0  0  0  0  0  0  0  0  0
   -5.5132    0.7008   -1.6512 C   0  0  0  0  0  0  0  0  0  0  0  0
   -5.5062    0.0047   -0.4542 C   0  0  0  0  0  0  0  0  0  0  0  0
   -4.2925   -0.2942    0.1714 C   0  0  0  0  0  0  0  0  0  0  0  0
   -3.0453    0.0823   -0.3768 C   0  0  0  0  0  0  0  0  0  0  0  0
   -1.7126   -0.2673    0.3527 C   0  0  0  0  0  0  0  0  0  0  0  0
   -1.8681    0.1498    1.8393 C   0  0  0  0  0  0  0  0  0  0  0  0
   -1.4116   -1.8008    0.2432 C   0  0  0  0  0  0  0  0  0  0  0  0
   -2.4078   -2.7858    0.8469 C   0  0  0  0  0  0  0  0  0  0  0  0
    6.9041    0.0237   -2.1285 H   0  0  0  0  0  0  0  0  0  0  0  0
    5.8965   -1.3852   -1.7187 H   0  0  0  0  0  0  0  0  0  0  0  0
    5.1429    0.1865   -1.9549 H   0  0  0  0  0  0  0  0  0  0  0  0
    7.1072   -0.5198    0.2918 H   0  0  0  0  0  0  0  0  0  0  0  0
    6.3512    1.0599    0.0989 H   0  0  0  0  0  0  0  0  0  0  0  0
    2.9107   -1.4404    1.2788 H   0  0  0  0  0  0  0  0  0  0  0  0
    3.2722   -0.3566    2.6311 H   0  0  0  0  0  0  0  0  0  0  0  0
    0.9151   -0.4688    2.1175 H   0  0  0  0  0  0  0  0  0  0  0  0
    0.3884    1.9129    2.1880 H   0  0  0  0  0  0  0  0  0  0  0  0
    1.8994    2.3389    1.3914 H   0  0  0  0  0  0  0  0  0  0  0  0
    1.9147    1.6582    3.0275 H   0  0  0  0  0  0  0  0  0  0  0  0
    1.1081   -0.9422   -0.3243 H   0  0  0  0  0  0  0  0  0  0  0  0
    1.6370    0.6891   -0.5908 H   0  0  0  0  0  0  0  0  0  0  0  0
   -0.5745    1.5960    0.0627 H   0  0  0  0  0  0  0  0  0  0  0  0
   -0.5871   -0.4482   -2.2116 H   0  0  0  0  0  0  0  0  0  0  0  0
    0.2744    1.0818   -2.2540 H   0  0  0  0  0  0  0  0  0  0  0  0
   -1.7398    2.3756   -2.0288 H   0  0  0  0  0  0  0  0  0  0  0  0
   -1.9222    1.2126   -3.3489 H   0  0  0  0  0  0  0  0  0  0  0  0
   -4.3200    1.6542   -3.1481 H   0  0  0  0  0  0  0  0  0  0  0  0
   -6.4516    0.9424   -2.1414 H   0  0  0  0  0  0  0  0  0  0  0  0
   -6.4422   -0.3071    0.0013 H   0  0  0  0  0  0  0  0  0  0  0  0
   -4.3508   -0.8403    1.1090 H   0  0  0  0  0  0  0  0  0  0  0  0
   -2.0034    1.2343    1.9285 H   0  0  0  0  0  0  0  0  0  0  0  0
   -1.0108   -0.1336    2.4464 H   0  0  0  0  0  0  0  0  0  0  0  0
   -2.7262   -0.3123    2.3349 H   0  0  0  0  0  0  0  0  0  0  0  0
   -0.4595   -2.0107    0.7433 H   0  0  0  0  0  0  0  0  0  0  0  0
   -1.2777   -2.0767   -0.8096 H   0  0  0  0  0  0  0  0  0  0  0  0
   -1.9830   -3.7957    0.8200 H   0  0  0  0  0  0  0  0  0  0  0  0
   -2.6322   -2.5567    1.8917 H   0  0  0  0  0  0  0  0  0  0  0  0
   -3.3385   -2.8244    0.2757 H   0  0  0  0  0  0  0  0  0  0  0  0
  1  2  1  0
  2  3  1  0
  3  4  1  0
  4  5  2  0
  4  6  1  0
  6  7  1  0
  7  8  1  0
  7  9  1  0
  9 10  1  0
 10 11  1  0
 11 12  1  0
 12 13  1  0
 13 14  2  0
 14 15  1  0
 15 16  2  0
 16 17  1  0
 17 18  2  0
 18 19  1  0
 19 20  1  0
 19 21  1  0
 21 22  1  0
 19 10  1  0
 18 13  1  0
  1 23  1  0
  1 24  1  0
  1 25  1  0
  2 26  1  0
  2 27  1  0
  6 28  1  0
  6 29  1  0
  7 30  1  0
  8 31  1  0
  8 32  1  0
  8 33  1  0
  9 34  1  0
  9 35  1  0
 10 36  1  0
 11 37  1  0
 11 38  1  0
 12 39  1  0
 12 40  1  0
 14 41  1  0
 15 42  1  0
 16 43  1  0
 17 44  1  0
 20 45  1  0
 20 46  1  0
 20 47  1  0
 21 48  1  0
 21 49  1  0
 22 50  1  0
 22 51  1  0
 22 52  1  0
M  END
$$$$
