
     RDKit          3D

 46 48  0  0  0  0  0  0  0  0999 V2000
   -0.7749    4.3652   -1.3158 C   0  0  0  0  0  0  0  0  0  0  0  0
   -0.6973    3.8545    0.1127 C   0  0  0  0  0  0  0  0  0  0  0  0
   -0.7118    2.4038    0.1392 N   0  0  0  0  0  0  0  0  0  0  0  0
    0.3494    1.4948    0.0207 C   0  0  0  0  0  0  0  0  0  0  0  0
    0.1425    0.1450   -0.1137 C   0  0  0  0  0  0  0  0  0  0  0  0
   -1.2091   -0.3357   -0.1118 C   0  0  0  0  0  0  0  0  0  0  0  0
   -2.0136   -0.9399   -1.0561 C   0  0  0  0  0  0  0  0  0  0  0  0
   -3.2752   -1.2043   -0.4527 C   0  0  0  0  0  0  0  0  0  0  0  0
   -4.4777   -1.7780   -0.9122 C   0  0  0  0  0  0  0  0  0  0  0  0
   -5.5510   -1.8805   -0.0242 C   0  0  0  0  0  0  0  0  0  0  0  0
   -6.7390   -2.4274   -0.4188 O   0  0  0  0  0  0  0  0  0  0  0  0
   -5.4560   -1.4340    1.2880 C   0  0  0  0  0  0  0  0  0  0  0  0
   -4.2710   -0.8663    1.7644 C   0  0  0  0  0  0  0  0  0  0  0  0
   -3.1988   -0.7660    0.8701 C   0  0  0  0  0  0  0  0  0  0  0  0
   -1.9299   -0.2670    1.0577 N   0  0  0  0  0  0  0  0  0  0  0  0
    1.2058   -0.8490   -0.2959 C   0  0  0  0  0  0  0  0  0  0  0  0
    2.4049   -0.8401    0.3122 C   0  0  0  0  0  0  0  0  0  0  0  0
    3.3127   -1.9735   -0.0019 C   0  0  0  0  0  0  0  0  0  0  0  0
    2.9566   -3.1363    0.1456 O   0  0  0  0  0  0  0  0  0  0  0  0
    4.5312   -1.5540   -0.4922 N   0  0  0  0  0  0  0  0  0  0  0  0
    5.2620   -2.5630   -1.1684 O   0  0  0  0  0  0  0  0  0  0  0  0
    6.2793   -3.0424   -0.2942 C   0  0  0  0  0  0  0  0  0  0  0  0
    2.8825    0.2325    1.2402 C   0  0  0  0  0  0  0  0  0  0  0  0
    2.8003    1.5794    0.5897 C   0  0  0  0  0  0  0  0  0  0  0  0
    1.6928    2.0868    0.0244 C   0  0  0  0  0  0  0  0  0  0  0  0
    0.0857    4.0376   -1.9073 H   0  0  0  0  0  0  0  0  0  0  0  0
   -1.6789    3.9984   -1.8137 H   0  0  0  0  0  0  0  0  0  0  0  0
   -0.7997    5.4593   -1.3273 H   0  0  0  0  0  0  0  0  0  0  0  0
   -1.5736    4.2139    0.6639 H   0  0  0  0  0  0  0  0  0  0  0  0
    0.1778    4.2630    0.6288 H   0  0  0  0  0  0  0  0  0  0  0  0
   -1.6051    2.0091   -0.1545 H   0  0  0  0  0  0  0  0  0  0  0  0
   -1.7293   -1.1590   -2.0769 H   0  0  0  0  0  0  0  0  0  0  0  0
   -4.5515   -2.1259   -1.9360 H   0  0  0  0  0  0  0  0  0  0  0  0
   -6.6499   -2.7207   -1.3403 H   0  0  0  0  0  0  0  0  0  0  0  0
   -6.3115   -1.5314    1.9515 H   0  0  0  0  0  0  0  0  0  0  0  0
   -4.1921   -0.5222    2.7902 H   0  0  0  0  0  0  0  0  0  0  0  0
   -1.5844    0.1302    1.9208 H   0  0  0  0  0  0  0  0  0  0  0  0
    0.9456   -1.6855   -0.9456 H   0  0  0  0  0  0  0  0  0  0  0  0
    4.5778   -0.6415   -0.9322 H   0  0  0  0  0  0  0  0  0  0  0  0
    6.8582   -3.8022   -0.8261 H   0  0  0  0  0  0  0  0  0  0  0  0
    5.8382   -3.4999    0.5970 H   0  0  0  0  0  0  0  0  0  0  0  0
    6.9512   -2.2271   -0.0080 H   0  0  0  0  0  0  0  0  0  0  0  0
    2.3036    0.2228    2.1719 H   0  0  0  0  0  0  0  0  0  0  0  0
    3.9229    0.0555    1.5378 H   0  0  0  0  0  0  0  0  0  0  0  0
    3.7164    2.1641    0.5554 H   0  0  0  0  0  0  0  0  0  0  0  0
    1.7842    3.0570   -0.4563 H   0  0  0  0  0  0  0  0  0  0  0  0
  1  2  1  0
  2  3  1  0
  3  4  1  0
  4  5  2  0
  5  6  1  0
  6  7  2  0
  7  8  1  0
  8  9  2  0
  9 10  1  0
 10 11  1  0
 10 12  2  0
 12 13  1  0
 13 14  2  0
 14 15  1  0
  5 16  1  0
 16 17  2  0
 17 18  1  0
 18 19  2  0
 18 20  1  0
 20 21  1  0
 21 22  1  0
 17 23  1  0
 23 24  1  0
 24 25  2  0
 25  4  1  0
 15  6  1  0
 14  8  1  0
  1 26  1  0
  1 27  1  0
  1 28  1  0
  2 29  1  0
  2 30  1  0
  3 31  1  0
  7 32  1  0
  9 33  1  0
 11 34  1  0
 12 35  1  0
 13 36  1  0
 15 37  1  0
 16 38  1  0
 20 39  1  0
 22 40  1  0
 22 41  1  0
 22 42  1  0
 23 43  1  0
 23 44  1  0
 24 45  1  0
 25 46  1  0
M  END
$$$$
