
     RDKit          3D

 48 51  0  0  0  0  0  0  0  0999 V2000
   -4.1395   -0.5919   -1.7546 C   0  0  0  0  0  0  0  0  0  0  0  0
   -2.9845   -0.4892   -0.7575 C   0  0  0  0  0  0  0  0  0  0  0  0
   -1.6943   -1.0486   -1.3718 C   0  0  0  0  0  0  0  0  0  0  0  0
   -0.5746   -0.7325   -0.5033 N   0  0  0  0  0  0  0  0  0  0  0  0
    0.5173    0.0272   -0.8995 C   0  0  0  0  0  0  0  0  0  0  0  0
    1.6826   -0.1616   -0.2015 N   0  0  0  0  0  0  0  0  0  0  0  0
    2.8426    0.4708   -0.5133 C   0  0  0  0  0  0  0  0  0  0  0  0
    3.9986    0.1271    0.3417 C   0  0  0  0  0  0  0  0  0  0  0  0
    5.3100    0.0596   -0.1642 C   0  0  0  0  0  0  0  0  0  0  0  0
    6.3929   -0.2647    0.6616 C   0  0  0  0  0  0  0  0  0  0  0  0
    6.1874   -0.5268    2.0124 C   0  0  0  0  0  0  0  0  0  0  0  0
    4.8994   -0.4772    2.5364 C   0  0  0  0  0  0  0  0  0  0  0  0
    3.8189   -0.1584    1.7081 C   0  0  0  0  0  0  0  0  0  0  0  0
    2.9346    1.3884   -1.5520 C   0  0  0  0  0  0  0  0  0  0  0  0
    1.7509    1.6327   -2.2400 C   0  0  0  0  0  0  0  0  0  0  0  0
    1.4734    2.4876   -3.2725 N   0  0  0  0  0  0  0  0  0  0  0  0
    0.1869    2.4880   -3.6521 N   0  0  0  0  0  0  0  0  0  0  0  0
   -0.3701    1.5926   -2.8315 C   0  0  0  0  0  0  0  0  0  0  0  0
    0.5526    0.9887   -1.9403 C   0  0  0  0  0  0  0  0  0  0  0  0
   -0.7563   -0.8188    0.9476 C   0  0  0  0  0  0  0  0  0  0  0  0
   -1.9949   -1.6382    1.3204 C   0  0  0  0  0  0  0  0  0  0  0  0
   -3.2842   -1.2554    0.5563 C   0  0  0  0  0  0  0  0  0  0  0  0
   -4.3400   -0.5793    1.4492 C   0  0  0  0  0  0  0  0  0  0  0  0
   -4.0063    0.8199    1.8935 C   0  0  0  0  0  0  0  0  0  0  0  0
   -2.9180    1.2459    2.2397 O   0  0  0  0  0  0  0  0  0  0  0  0
   -5.0929    1.6189    1.9236 O   0  0  0  0  0  0  0  0  0  0  0  0
   -5.0529   -0.1431   -1.3534 H   0  0  0  0  0  0  0  0  0  0  0  0
   -3.8956   -0.0644   -2.6827 H   0  0  0  0  0  0  0  0  0  0  0  0
   -4.3543   -1.6358   -2.0078 H   0  0  0  0  0  0  0  0  0  0  0  0
   -2.8293    0.5754   -0.5386 H   0  0  0  0  0  0  0  0  0  0  0  0
   -1.7685   -2.1410   -1.4596 H   0  0  0  0  0  0  0  0  0  0  0  0
   -1.5524   -0.7002   -2.3969 H   0  0  0  0  0  0  0  0  0  0  0  0
    5.5035    0.2374   -1.2196 H   0  0  0  0  0  0  0  0  0  0  0  0
    7.3957   -0.3165    0.2453 H   0  0  0  0  0  0  0  0  0  0  0  0
    7.0279   -0.7808    2.6540 H   0  0  0  0  0  0  0  0  0  0  0  0
    4.7287   -0.6929    3.5877 H   0  0  0  0  0  0  0  0  0  0  0  0
    2.8172   -0.1310    2.1360 H   0  0  0  0  0  0  0  0  0  0  0  0
    3.8521    1.9124   -1.7861 H   0  0  0  0  0  0  0  0  0  0  0  0
    2.1141    3.1117   -3.7494 H   0  0  0  0  0  0  0  0  0  0  0  0
   -1.4353    1.4268   -2.9121 H   0  0  0  0  0  0  0  0  0  0  0  0
    0.1137   -1.2943    1.4198 H   0  0  0  0  0  0  0  0  0  0  0  0
   -0.8424    0.1897    1.3671 H   0  0  0  0  0  0  0  0  0  0  0  0
   -2.1493   -1.6048    2.4054 H   0  0  0  0  0  0  0  0  0  0  0  0
   -1.7735   -2.6894    1.0873 H   0  0  0  0  0  0  0  0  0  0  0  0
   -3.7399   -2.2164    0.2725 H   0  0  0  0  0  0  0  0  0  0  0  0
   -5.2923   -0.5492    0.9058 H   0  0  0  0  0  0  0  0  0  0  0  0
   -4.5153   -1.1772    2.3519 H   0  0  0  0  0  0  0  0  0  0  0  0
   -4.7444    2.4787    2.2415 H   0  0  0  0  0  0  0  0  0  0  0  0
  1  2  1  0
  2  3  1  0
  3  4  1  0
  4  5  1  0
  5  6  2  0
  6  7  1  0
  7  8  1  0
  8  9  2  0
  9 10  1  0
 10 11  2  0
 11 12  1  0
 12 13  2  0
  7 14  2  0
 14 15  1  0
 15 16  1  0
 16 17  1  0
 17 18  2  0
 18 19  1  0
  4 20  1  0
 20 21  1  0
 21 22  1  0
 22 23  1  0
 23 24  1  0
 24 25  2  0
 24 26  1  0
 22  2  1  0
 19  5  1  0
 13  8  1  0
 19 15  2  0
  1 27  1  0
  1 28  1  0
  1 29  1  0
  2 30  1  0
  3 31  1  0
  3 32  1  0
  9 33  1  0
 10 34  1  0
 11 35  1  0
 12 36  1  0
 13 37  1  0
 14 38  1  0
 16 39  1  0
 18 40  1  0
 20 41  1  0
 20 42  1  0
 21 43  1  0
 21 44  1  0
 22 45  1  0
 23 46  1  0
 23 47  1  0
 26 48  1  0
M  END
$$$$
