
     RDKit          3D

 37 39  0  0  0  0  0  0  0  0999 V2000
   -5.1038   -1.2079    1.8912 C   0  0  0  0  0  0  0  0  0  0  0  0
   -4.2997   -0.4480    0.8793 C   0  0  0  0  0  0  0  0  0  0  0  0
   -2.9145   -0.5403    0.8749 C   0  0  0  0  0  0  0  0  0  0  0  0
   -2.1778    0.1846   -0.0720 C   0  0  0  0  0  0  0  0  0  0  0  0
   -0.7109    0.0837   -0.0635 C   0  0  0  0  0  0  0  0  0  0  0  0
   -0.0709   -1.0779   -0.5158 C   0  0  0  0  0  0  0  0  0  0  0  0
    1.3251   -1.1779   -0.5044 C   0  0  0  0  0  0  0  0  0  0  0  0
    2.1241   -0.1230   -0.0379 C   0  0  0  0  0  0  0  0  0  0  0  0
    3.5924   -0.2286   -0.0284 C   0  0  0  0  0  0  0  0  0  0  0  0
    4.3305    0.0213    1.1436 C   0  0  0  0  0  0  0  0  0  0  0  0
    5.7260   -0.0793    1.1578 C   0  0  0  0  0  0  0  0  0  0  0  0
    6.4070   -0.4318   -0.0036 C   0  0  0  0  0  0  0  0  0  0  0  0
    5.6879   -0.6796   -1.1655 C   0  0  0  0  0  0  0  0  0  0  0  0
    6.3421   -1.0180   -2.2846 F   0  0  0  0  0  0  0  0  0  0  0  0
    4.2994   -0.5822   -1.1883 C   0  0  0  0  0  0  0  0  0  0  0  0
    1.4781    1.0364    0.4174 C   0  0  0  0  0  0  0  0  0  0  0  0
    0.0822    1.1390    0.4064 C   0  0  0  0  0  0  0  0  0  0  0  0
   -2.8826    0.9819   -0.9924 C   0  0  0  0  0  0  0  0  0  0  0  0
   -2.1993    1.7395   -1.9984 C   0  0  0  0  0  0  0  0  0  0  0  0
   -1.6517    2.3379   -2.8299 N   0  0  0  0  0  0  0  0  0  0  0  0
   -4.2770    1.0115   -0.9237 C   0  0  0  0  0  0  0  0  0  0  0  0
   -5.0623    1.7993   -1.7632 N   0  0  0  0  0  0  0  0  0  0  0  0
   -4.9772    0.3176   -0.0047 N   0  0  0  0  0  0  0  0  0  0  0  0
   -4.9219   -2.2822    1.7892 H   0  0  0  0  0  0  0  0  0  0  0  0
   -4.8339   -0.8912    2.9034 H   0  0  0  0  0  0  0  0  0  0  0  0
   -6.1748   -1.0289    1.7519 H   0  0  0  0  0  0  0  0  0  0  0  0
   -2.4081   -1.1637    1.6079 H   0  0  0  0  0  0  0  0  0  0  0  0
   -0.6541   -1.9181   -0.8881 H   0  0  0  0  0  0  0  0  0  0  0  0
    1.7868   -2.0979   -0.8587 H   0  0  0  0  0  0  0  0  0  0  0  0
    3.8158    0.2879    2.0653 H   0  0  0  0  0  0  0  0  0  0  0  0
    6.2760    0.1157    2.0748 H   0  0  0  0  0  0  0  0  0  0  0  0
    7.4889   -0.5145   -0.0121 H   0  0  0  0  0  0  0  0  0  0  0  0
    3.7800   -0.7722   -2.1235 H   0  0  0  0  0  0  0  0  0  0  0  0
    2.0617    1.8838    0.7728 H   0  0  0  0  0  0  0  0  0  0  0  0
   -0.3782    2.0574    0.7666 H   0  0  0  0  0  0  0  0  0  0  0  0
   -6.0361    1.6100   -1.5354 H   0  0  0  0  0  0  0  0  0  0  0  0
   -4.8692    1.6559   -2.7487 H   0  0  0  0  0  0  0  0  0  0  0  0
  1  2  1  0
  2  3  2  0
  3  4  1  0
  4  5  1  0
  5  6  2  0
  6  7  1  0
  7  8  2  0
  8  9  1  0
  9 10  2  0
 10 11  1  0
 11 12  2  0
 12 13  1  0
 13 14  1  0
 13 15  2  0
  8 16  1  0
 16 17  2  0
  4 18  2  0
 18 19  1  0
 19 20  3  0
 18 21  1  0
 21 22  1  0
 21 23  2  0
 23  2  1  0
 17  5  1  0
 15  9  1  0
  1 24  1  0
  1 25  1  0
  1 26  1  0
  3 27  1  0
  6 28  1  0
  7 29  1  0
 10 30  1  0
 11 31  1  0
 12 32  1  0
 15 33  1  0
 16 34  1  0
 17 35  1  0
 22 36  1  0
 22 37  1  0
M  END
$$$$
