
     RDKit          3D

 44 46  0  0  0  0  0  0  0  0999 V2000
    6.0230   -2.8653    0.0601 C   0  0  0  0  0  0  0  0  0  0  0  0
    4.9500   -2.0583   -0.4056 O   0  0  0  0  0  0  0  0  0  0  0  0
    4.5848   -0.9984    0.3784 C   0  0  0  0  0  0  0  0  0  0  0  0
    5.2854   -0.5215    1.4839 C   0  0  0  0  0  0  0  0  0  0  0  0
    4.7860    0.5686    2.1947 C   0  0  0  0  0  0  0  0  0  0  0  0
    5.6493    1.1522    3.5679 Cl  0  0  0  0  0  0  0  0  0  0  0  0
    3.5998    1.1950    1.8106 C   0  0  0  0  0  0  0  0  0  0  0  0
    2.8832    0.7404    0.6940 C   0  0  0  0  0  0  0  0  0  0  0  0
    1.6348    1.3991    0.2666 C   0  0  0  0  0  0  0  0  0  0  0  0
    1.5616    2.7975    0.1296 C   0  0  0  0  0  0  0  0  0  0  0  0
    0.3874    3.4252   -0.2993 C   0  0  0  0  0  0  0  0  0  0  0  0
   -0.7372    2.6624   -0.6037 C   0  0  0  0  0  0  0  0  0  0  0  0
   -0.6982    1.2683   -0.4776 C   0  0  0  0  0  0  0  0  0  0  0  0
   -1.8982    0.4390   -0.8277 C   0  0  0  0  0  0  0  0  0  0  0  0
   -1.8264   -0.0441   -2.0766 C   0  0  0  0  0  0  0  0  0  0  0  0
   -2.3909   -0.9918   -2.8462 C   0  0  0  0  0  0  0  0  0  0  0  0
   -3.2358   -2.0336   -2.8959 N   0  0  0  0  0  0  0  0  0  0  0  0
   -4.1653   -2.3345   -1.9825 C   0  0  0  0  0  0  0  0  0  0  0  0
   -4.9082   -1.7169   -1.0567 C   0  0  0  0  0  0  0  0  0  0  0  0
   -4.9811   -0.3912   -0.6773 N   0  0  0  0  0  0  0  0  0  0  0  0
   -6.3346    0.1686   -0.5881 C   0  0  0  0  0  0  0  0  0  0  0  0
   -4.0581    0.0401    0.2546 C   0  0  0  0  0  0  0  0  0  0  0  0
   -2.7738    0.3945    0.1859 C   0  0  0  0  0  0  0  0  0  0  0  0
    0.4853    0.6495   -0.0370 C   0  0  0  0  0  0  0  0  0  0  0  0
    3.4000   -0.3611   -0.0115 C   0  0  0  0  0  0  0  0  0  0  0  0
    6.0955   -3.7357   -0.5963 H   0  0  0  0  0  0  0  0  0  0  0  0
    6.9711   -2.3235    0.0011 H   0  0  0  0  0  0  0  0  0  0  0  0
    5.8398   -3.2302    1.0750 H   0  0  0  0  0  0  0  0  0  0  0  0
    6.2130   -0.9793    1.8083 H   0  0  0  0  0  0  0  0  0  0  0  0
    3.2254    2.0362    2.3867 H   0  0  0  0  0  0  0  0  0  0  0  0
    2.4346    3.4126    0.3326 H   0  0  0  0  0  0  0  0  0  0  0  0
    0.3562    4.5039   -0.4199 H   0  0  0  0  0  0  0  0  0  0  0  0
   -1.6441    3.1432   -0.9625 H   0  0  0  0  0  0  0  0  0  0  0  0
   -1.0044    0.4112   -2.6458 H   0  0  0  0  0  0  0  0  0  0  0  0
   -1.8812   -0.9381   -3.8189 H   0  0  0  0  0  0  0  0  0  0  0  0
   -4.4835   -3.3793   -2.0522 H   0  0  0  0  0  0  0  0  0  0  0  0
   -5.6611   -2.3140   -0.5477 H   0  0  0  0  0  0  0  0  0  0  0  0
   -6.8665   -0.2284    0.2858 H   0  0  0  0  0  0  0  0  0  0  0  0
   -6.2959    1.2615   -0.5057 H   0  0  0  0  0  0  0  0  0  0  0  0
   -6.9135   -0.0705   -1.4872 H   0  0  0  0  0  0  0  0  0  0  0  0
   -4.5488    0.2041    1.2133 H   0  0  0  0  0  0  0  0  0  0  0  0
   -2.4249    0.8155    1.1315 H   0  0  0  0  0  0  0  0  0  0  0  0
    0.4936   -0.4361    0.0583 H   0  0  0  0  0  0  0  0  0  0  0  0
    2.8717   -0.7366   -0.8887 H   0  0  0  0  0  0  0  0  0  0  0  0
  1  2  1  0
  2  3  1  0
  3  4  2  0
  4  5  1  0
  5  6  1  0
  5  7  2  0
  7  8  1  0
  8  9  1  0
  9 10  2  0
 10 11  1  0
 11 12  2  0
 12 13  1  0
 13 14  1  0
 14 15  2  0
 15 16  1  0
 16 17  2  0
 17 18  1  0
 18 19  2  0
 19 20  1  0
 20 21  1  0
 20 22  1  0
 22 23  2  0
 13 24  2  0
  8 25  2  0
 25  3  1  0
 24  9  1  0
 23 14  1  0
  1 26  1  0
  1 27  1  0
  1 28  1  0
  4 29  1  0
  7 30  1  0
 10 31  1  0
 11 32  1  0
 12 33  1  0
 15 34  1  0
 16 35  1  0
 18 36  1  0
 19 37  1  0
 21 38  1  0
 21 39  1  0
 21 40  1  0
 22 41  1  0
 23 42  1  0
 24 43  1  0
 25 44  1  0
M  END
$$$$
