
     RDKit          3D

 40 42  0  0  0  0  0  0  0  0999 V2000
   -3.3302    1.0537    2.4348 C   0  0  0  0  0  0  0  0  0  0  0  0
   -2.8589    0.2631    1.3505 O   0  0  0  0  0  0  0  0  0  0  0  0
   -3.4894    0.4181    0.1377 C   0  0  0  0  0  0  0  0  0  0  0  0
   -4.6610    1.1521   -0.0639 C   0  0  0  0  0  0  0  0  0  0  0  0
   -5.2143    1.2300   -1.3417 C   0  0  0  0  0  0  0  0  0  0  0  0
   -6.6578    2.1346   -1.5910 Cl  0  0  0  0  0  0  0  0  0  0  0  0
   -4.6143    0.5813   -2.4173 C   0  0  0  0  0  0  0  0  0  0  0  0
   -3.4448   -0.1572   -2.2212 C   0  0  0  0  0  0  0  0  0  0  0  0
   -2.8744   -0.2433   -0.9494 C   0  0  0  0  0  0  0  0  0  0  0  0
   -1.6949   -0.9669   -0.6683 N   0  0  0  0  0  0  0  0  0  0  0  0
   -0.8586   -1.6251   -1.5492 C   0  0  0  0  0  0  0  0  0  0  0  0
   -1.0039   -1.6966   -2.7679 O   0  0  0  0  0  0  0  0  0  0  0  0
    0.2957   -2.3406   -0.8733 C   0  0  0  0  0  0  0  0  0  0  0  0
    1.1665   -1.3474   -0.1924 C   0  0  0  0  0  0  0  0  0  0  0  0
    0.9539   -0.8975    1.0309 N   0  0  0  0  0  0  0  0  0  0  0  0
    1.8642    0.0910    1.3944 N   0  0  0  0  0  0  0  0  0  0  0  0
    2.7359    0.3323    0.4384 C   0  0  0  0  0  0  0  0  0  0  0  0
    3.8164    1.4468    0.5496 C   0  0  0  0  0  0  0  0  0  0  0  0
    4.3761    1.8022    1.9034 C   0  0  0  0  0  0  0  0  0  0  0  0
    5.2312    1.0715    0.9104 C   0  0  0  0  0  0  0  0  0  0  0  0
    2.5201   -0.6504   -0.8880 S   0  0  0  0  0  4  0  0  0  0  0  0
    3.7601   -1.8539   -0.7569 C   0  0  0  0  0  0  0  0  0  0  0  0
   -4.3414    0.7532    2.7274 H   0  0  0  0  0  0  0  0  0  0  0  0
   -2.6699    0.8760    3.2890 H   0  0  0  0  0  0  0  0  0  0  0  0
   -3.2870    2.1216    2.1963 H   0  0  0  0  0  0  0  0  0  0  0  0
   -5.1613    1.6631    0.7508 H   0  0  0  0  0  0  0  0  0  0  0  0
   -5.0487    0.6418   -3.4119 H   0  0  0  0  0  0  0  0  0  0  0  0
   -3.0053   -0.6547   -3.0797 H   0  0  0  0  0  0  0  0  0  0  0  0
   -1.4011   -0.9024    0.3078 H   0  0  0  0  0  0  0  0  0  0  0  0
    0.8493   -2.9152   -1.6242 H   0  0  0  0  0  0  0  0  0  0  0  0
   -0.1093   -3.0572   -0.1499 H   0  0  0  0  0  0  0  0  0  0  0  0
    3.6762    2.2657   -0.1480 H   0  0  0  0  0  0  0  0  0  0  0  0
    4.5954    2.8450    2.1000 H   0  0  0  0  0  0  0  0  0  0  0  0
    4.0182    1.2558    2.7694 H   0  0  0  0  0  0  0  0  0  0  0  0
    6.0358    1.6181    0.4328 H   0  0  0  0  0  0  0  0  0  0  0  0
    5.4628    0.0340    1.1214 H   0  0  0  0  0  0  0  0  0  0  0  0
    2.2180    0.0541   -2.0014 H   0  0  0  0  0  0  0  0  0  0  0  0
    3.8623   -2.2514    0.2584 H   0  0  0  0  0  0  0  0  0  0  0  0
    3.5560   -2.6997   -1.4211 H   0  0  0  0  0  0  0  0  0  0  0  0
    4.7322   -1.4453   -1.0502 H   0  0  0  0  0  0  0  0  0  0  0  0
  1  2  1  0
  2  3  1  0
  3  4  2  0
  4  5  1  0
  5  6  1  0
  5  7  2  0
  7  8  1  0
  8  9  2  0
  9 10  1  0
 10 11  1  0
 11 12  2  0
 11 13  1  0
 13 14  1  0
 14 15  2  0
 15 16  1  0
 16 17  2  0
 17 18  1  0
 18 19  1  0
 19 20  1  0
 17 21  1  0
 21 22  1  0
  9  3  1  0
 21 14  1  0
 20 18  1  0
  1 23  1  0
  1 24  1  0
  1 25  1  0
  4 26  1  0
  7 27  1  0
  8 28  1  0
 10 29  1  0
 13 30  1  0
 13 31  1  0
 18 32  1  0
 19 33  1  0
 19 34  1  0
 20 35  1  0
 20 36  1  0
 21 37  1  0
 22 38  1  0
 22 39  1  0
 22 40  1  0
M  END
$$$$
