
     RDKit          3D

 51 55  0  0  0  0  0  0  0  0999 V2000
   -0.8357   -4.4443    1.7165 C   0  0  0  0  0  0  0  0  0  0  0  0
   -1.2005   -3.3877    0.6749 C   0  0  0  0  0  0  0  0  0  0  0  0
   -2.0788   -3.9680   -0.4328 C   0  0  0  0  0  0  0  0  0  0  0  0
   -1.9302   -2.2143    1.3555 C   0  0  0  0  0  0  0  0  0  0  0  0
   -3.0111   -2.2897    1.9219 O   0  0  0  0  0  0  0  0  0  0  0  0
   -1.1395   -1.0711    1.1969 N   0  0  0  0  0  0  0  0  0  0  0  0
   -1.6193    0.2378    1.5807 C   0  0  1  0  0  0  0  0  0  0  0  0
   -0.5848    1.3375    1.8955 C   0  0  0  0  0  0  0  0  0  0  0  0
   -0.4868    2.2566    0.6661 C   0  0  0  0  0  0  0  0  0  0  0  0
   -1.8124    2.0431    0.0094 C   0  0  0  0  0  0  0  0  0  0  0  0
   -2.3963    2.7928   -0.9941 C   0  0  0  0  0  0  0  0  0  0  0  0
   -1.7472    3.8933   -1.4616 O   0  0  0  0  0  0  0  0  0  0  0  0
   -3.6361    2.4073   -1.5009 C   0  0  0  0  0  0  0  0  0  0  0  0
   -4.2772    1.2656   -0.9959 C   0  0  0  0  0  0  0  0  0  0  0  0
   -3.6827    0.5033    0.0126 C   0  0  0  0  0  0  0  0  0  0  0  0
   -2.4450    0.8982    0.5039 C   0  0  0  0  0  0  0  0  0  0  0  0
    0.0143   -1.3643    0.4582 C   0  0  0  0  0  0  0  0  0  0  0  0
    0.9895   -0.5221    0.1221 N   0  0  0  0  0  0  0  0  0  0  0  0
    1.9925   -1.0420   -0.6076 C   0  0  0  0  0  0  0  0  0  0  0  0
    3.0600   -0.2683   -1.0543 N   0  0  0  0  0  0  0  0  0  0  0  0
    3.6107    0.9459   -0.6307 C   0  0  0  0  0  0  0  0  0  0  0  0
    3.2185    1.6105    0.5339 C   0  0  0  0  0  0  0  0  0  0  0  0
    3.7687    2.8481    0.8844 C   0  0  0  0  0  0  0  0  0  0  0  0
    4.7180    3.4484    0.0631 C   0  0  0  0  0  0  0  0  0  0  0  0
    5.1138    2.8120   -1.1087 C   0  0  0  0  0  0  0  0  0  0  0  0
    4.5595    1.5754   -1.4525 C   0  0  0  0  0  0  0  0  0  0  0  0
    2.0437   -2.3345   -1.0018 N   0  0  0  0  0  0  0  0  0  0  0  0
    1.0515   -3.1532   -0.6147 C   0  0  0  0  0  0  0  0  0  0  0  0
    0.0087   -2.6999    0.1311 C   0  0  0  0  0  0  0  0  0  0  0  0
   -0.2449   -4.0154    2.5350 H   0  0  0  0  0  0  0  0  0  0  0  0
   -0.2480   -5.2566    1.2741 H   0  0  0  0  0  0  0  0  0  0  0  0
   -1.7348   -4.8836    2.1635 H   0  0  0  0  0  0  0  0  0  0  0  0
   -2.3769   -3.1974   -1.1541 H   0  0  0  0  0  0  0  0  0  0  0  0
   -1.5569   -4.7565   -0.9868 H   0  0  0  0  0  0  0  0  0  0  0  0
   -2.9990   -4.3983   -0.0216 H   0  0  0  0  0  0  0  0  0  0  0  0
   -2.2528    0.1067    2.4679 H   0  0  0  0  0  0  0  0  0  0  0  0
    0.3835    0.9588    2.2333 H   0  0  0  0  0  0  0  0  0  0  0  0
   -0.9752    1.9421    2.7279 H   0  0  0  0  0  0  0  0  0  0  0  0
   -0.3374    3.2973    0.9689 H   0  0  0  0  0  0  0  0  0  0  0  0
    0.3139    1.9582   -0.0135 H   0  0  0  0  0  0  0  0  0  0  0  0
   -2.2671    4.2727   -2.1879 H   0  0  0  0  0  0  0  0  0  0  0  0
   -4.1219    2.9791   -2.2853 H   0  0  0  0  0  0  0  0  0  0  0  0
   -5.2463    0.9718   -1.3917 H   0  0  0  0  0  0  0  0  0  0  0  0
   -4.1857   -0.3761    0.4051 H   0  0  0  0  0  0  0  0  0  0  0  0
    3.6497   -0.8364   -1.6454 H   0  0  0  0  0  0  0  0  0  0  0  0
    2.4888    1.1654    1.2015 H   0  0  0  0  0  0  0  0  0  0  0  0
    3.4495    3.3404    1.7990 H   0  0  0  0  0  0  0  0  0  0  0  0
    5.1425    4.4114    0.3330 H   0  0  0  0  0  0  0  0  0  0  0  0
    5.8467    3.2786   -1.7613 H   0  0  0  0  0  0  0  0  0  0  0  0
    4.8704    1.1066   -2.3831 H   0  0  0  0  0  0  0  0  0  0  0  0
    1.1361   -4.1852   -0.9368 H   0  0  0  0  0  0  0  0  0  0  0  0
  1  2  1  0
  2  3  1  0
  2  4  1  0
  4  5  2  0
  4  6  1  0
  6  7  1  0
  7  8  1  0
  8  9  1  0
  9 10  1  0
 10 11  2  0
 11 12  1  0
 11 13  1  0
 13 14  2  0
 14 15  1  0
 15 16  2  0
  6 17  1  0
 17 18  2  0
 18 19  1  0
 19 20  1  0
 20 21  1  0
 21 22  2  0
 22 23  1  0
 23 24  2  0
 24 25  1  0
 25 26  2  0
 19 27  2  0
 27 28  1  0
 28 29  2  0
 29  2  1  0
 16  7  1  0
 29 17  1  0
 16 10  1  0
 26 21  1  0
  1 30  1  0
  1 31  1  0
  1 32  1  0
  3 33  1  0
  3 34  1  0
  3 35  1  0
  7 36  1  1
  8 37  1  0
  8 38  1  0
  9 39  1  0
  9 40  1  0
 12 41  1  0
 13 42  1  0
 14 43  1  0
 15 44  1  0
 20 45  1  0
 22 46  1  0
 23 47  1  0
 24 48  1  0
 25 49  1  0
 26 50  1  0
 28 51  1  0
M  END
$$$$
