
     RDKit          3D

 44 47  0  0  0  0  0  0  0  0999 V2000
    0.8663   -2.9142    1.0063 C   0  0  0  0  0  0  0  0  0  0  0  0
    0.3035   -1.6343    0.6445 N   0  0  0  0  0  0  0  0  0  0  0  0
    0.9871   -0.4384    0.5246 C   0  0  0  0  0  0  0  0  0  0  0  0
    2.4022   -0.2157    0.8367 C   0  0  0  0  0  0  0  0  0  0  0  0
    2.9838   -0.6705    2.0248 C   0  0  0  0  0  0  0  0  0  0  0  0
    4.3362   -0.4394    2.2786 C   0  0  0  0  0  0  0  0  0  0  0  0
    5.1165    0.2631    1.3566 C   0  0  0  0  0  0  0  0  0  0  0  0
    4.5479    0.7565    0.1824 C   0  0  0  0  0  0  0  0  0  0  0  0
    5.2604    1.4885   -0.7871 N   0  0  0  0  0  0  0  0  0  0  0  0
    6.5594    1.9146   -0.7280 C   0  0  0  0  0  0  0  0  0  0  0  0
    6.9314    2.5595   -1.8729 N   0  0  0  0  0  0  0  0  0  0  0  0
    7.3641    1.7891    0.1827 O   0  0  0  0  0  0  0  0  0  0  0  0
    3.1910    0.5135   -0.0671 C   0  0  0  0  0  0  0  0  0  0  0  0
    0.1867    0.4892    0.0303 N   0  0  0  0  0  0  0  0  0  0  0  0
   -1.0535   -0.0897   -0.1002 C   0  0  0  0  0  0  0  0  0  0  0  0
   -2.2714    0.4543   -0.5468 C   0  0  0  0  0  0  0  0  0  0  0  0
   -2.3302    1.7452   -0.9154 F   0  0  0  0  0  0  0  0  0  0  0  0
   -3.4331   -0.3396   -0.5920 C   0  0  0  0  0  0  0  0  0  0  0  0
   -4.7107    0.2191   -1.0571 C   0  0  0  0  0  0  0  0  0  0  0  0
   -5.8421    0.2520   -0.2309 C   0  0  0  0  0  0  0  0  0  0  0  0
   -5.7787   -0.2395    1.0168 F   0  0  0  0  0  0  0  0  0  0  0  0
   -7.0571    0.7883   -0.6621 C   0  0  0  0  0  0  0  0  0  0  0  0
   -7.1688    1.3090   -1.9488 C   0  0  0  0  0  0  0  0  0  0  0  0
   -6.0630    1.2847   -2.7951 C   0  0  0  0  0  0  0  0  0  0  0  0
   -4.8553    0.7448   -2.3483 C   0  0  0  0  0  0  0  0  0  0  0  0
   -3.8230    0.7182   -3.2057 F   0  0  0  0  0  0  0  0  0  0  0  0
   -3.3443   -1.6808   -0.1774 C   0  0  0  0  0  0  0  0  0  0  0  0
   -2.1415   -2.2495    0.2670 C   0  0  0  0  0  0  0  0  0  0  0  0
   -1.0119   -1.4235    0.2916 C   0  0  0  0  0  0  0  0  0  0  0  0
    0.2799   -3.7151    0.5493 H   0  0  0  0  0  0  0  0  0  0  0  0
    0.8394   -3.0054    2.0946 H   0  0  0  0  0  0  0  0  0  0  0  0
    1.8907   -2.9840    0.6331 H   0  0  0  0  0  0  0  0  0  0  0  0
    2.3912   -1.1864    2.7751 H   0  0  0  0  0  0  0  0  0  0  0  0
    4.7865   -0.7933    3.2028 H   0  0  0  0  0  0  0  0  0  0  0  0
    6.1643    0.4241    1.5923 H   0  0  0  0  0  0  0  0  0  0  0  0
    4.7250    1.8546   -1.5607 H   0  0  0  0  0  0  0  0  0  0  0  0
    6.6129    2.1550   -2.7412 H   0  0  0  0  0  0  0  0  0  0  0  0
    7.9180    2.7913   -1.8711 H   0  0  0  0  0  0  0  0  0  0  0  0
    2.7225    0.8946   -0.9731 H   0  0  0  0  0  0  0  0  0  0  0  0
   -7.9063    0.7972    0.0149 H   0  0  0  0  0  0  0  0  0  0  0  0
   -8.1108    1.7306   -2.2902 H   0  0  0  0  0  0  0  0  0  0  0  0
   -6.1274    1.6815   -3.8040 H   0  0  0  0  0  0  0  0  0  0  0  0
   -4.2336   -2.3110   -0.2004 H   0  0  0  0  0  0  0  0  0  0  0  0
   -2.1043   -3.2881    0.5792 H   0  0  0  0  0  0  0  0  0  0  0  0
  1  2  1  0
  2  3  1  0
  3  4  1  0
  4  5  2  0
  5  6  1  0
  6  7  2  0
  7  8  1  0
  8  9  1  0
  9 10  1  0
 10 11  1  0
 10 12  2  0
  8 13  2  0
  3 14  2  0
 14 15  1  0
 15 16  2  0
 16 17  1  0
 16 18  1  0
 18 19  1  0
 19 20  2  0
 20 21  1  0
 20 22  1  0
 22 23  2  0
 23 24  1  0
 24 25  2  0
 25 26  1  0
 18 27  2  0
 27 28  1  0
 28 29  2  0
 29  2  1  0
 13  4  1  0
 29 15  1  0
 25 19  1  0
  1 30  1  0
  1 31  1  0
  1 32  1  0
  5 33  1  0
  6 34  1  0
  7 35  1  0
  9 36  1  0
 11 37  1  0
 11 38  1  0
 13 39  1  0
 22 40  1  0
 23 41  1  0
 24 42  1  0
 27 43  1  0
 28 44  1  0
M  END
$$$$
