
     RDKit          3D

 53 57  0  0  0  0  0  0  0  0999 V2000
    6.2636   -0.8201   -2.4854 O   0  0  0  0  0  0  0  0  0  0  0  0
    5.4433   -1.1190   -1.3291 S   0  0  0  0  0  0  0  0  0  0  0  0
    5.8146   -2.1726   -0.4099 O   0  0  0  0  0  0  0  0  0  0  0  0
    3.8945   -1.4090   -1.9233 N   0  0  0  0  0  0  0  0  0  0  0  0
    2.7466   -1.4555   -1.0833 C   0  0  0  0  0  0  0  0  0  0  0  0
    2.7291   -2.1326    0.1374 C   0  0  0  0  0  0  0  0  0  0  0  0
    1.5545   -2.1837    0.8962 C   0  0  0  0  0  0  0  0  0  0  0  0
    0.3643   -1.5964    0.4316 C   0  0  0  0  0  0  0  0  0  0  0  0
   -0.9072   -1.6942    1.2730 C   0  0  0  0  0  0  0  0  0  0  0  0
   -1.9948   -0.7708    0.8540 N   0  0  0  0  0  0  0  0  0  0  0  0
   -2.9917   -1.2740    0.1974 C   0  0  0  0  0  0  0  0  0  0  0  0
   -4.0554   -0.5224   -0.2069 N   0  0  0  0  0  0  0  0  0  0  0  0
   -4.3612    0.7961    0.3257 C   0  0  0  0  0  0  0  0  0  0  0  0
   -3.5238    1.8595   -0.3799 C   0  0  0  0  0  0  0  0  0  0  0  0
   -3.8468    3.2486    0.1674 C   0  0  0  0  0  0  0  0  0  0  0  0
   -5.1572    3.3361    0.7361 O   0  0  0  0  0  0  0  0  0  0  0  0
   -6.1205    2.5958   -0.0060 C   0  0  0  0  0  0  0  0  0  0  0  0
   -5.8563    1.0994    0.1448 C   0  0  0  0  0  0  0  0  0  0  0  0
   -3.0254   -2.5881   -0.1907 N   0  0  0  0  0  0  0  0  0  0  0  0
   -2.2128   -3.2342    0.5114 C   0  0  0  0  0  0  0  0  0  0  0  0
   -1.3423   -4.3048    0.4383 C   0  0  0  0  0  0  0  0  0  0  0  0
   -1.3273   -3.0784    1.4808 N   0  0  0  0  0  0  0  0  0  0  0  0
    0.3877   -0.9489   -0.8122 C   0  0  0  0  0  0  0  0  0  0  0  0
    1.5655   -0.8856   -1.5640 C   0  0  0  0  0  0  0  0  0  0  0  0
    5.2540    0.3940   -0.4113 C   0  0  0  0  0  0  0  0  0  0  0  0
    5.1621    1.6064   -1.1040 C   0  0  0  0  0  0  0  0  0  0  0  0
    5.0518    2.8002   -0.3866 C   0  0  0  0  0  0  0  0  0  0  0  0
    5.0441    2.7798    1.0095 C   0  0  0  0  0  0  0  0  0  0  0  0
    5.1504    1.5674    1.6940 C   0  0  0  0  0  0  0  0  0  0  0  0
    5.2615    0.3696    0.9858 C   0  0  0  0  0  0  0  0  0  0  0  0
    3.7806   -1.0772   -2.8786 H   0  0  0  0  0  0  0  0  0  0  0  0
    3.6090   -2.6473    0.5147 H   0  0  0  0  0  0  0  0  0  0  0  0
    1.5660   -2.7094    1.8505 H   0  0  0  0  0  0  0  0  0  0  0  0
   -0.6209   -1.3263    2.2680 H   0  0  0  0  0  0  0  0  0  0  0  0
   -4.8356   -1.0994   -0.4990 H   0  0  0  0  0  0  0  0  0  0  0  0
   -4.1368    0.8157    1.4008 H   0  0  0  0  0  0  0  0  0  0  0  0
   -3.7437    1.8363   -1.4561 H   0  0  0  0  0  0  0  0  0  0  0  0
   -2.4473    1.6682   -0.2952 H   0  0  0  0  0  0  0  0  0  0  0  0
   -3.1363    3.5167    0.9604 H   0  0  0  0  0  0  0  0  0  0  0  0
   -3.7503    4.0042   -0.6235 H   0  0  0  0  0  0  0  0  0  0  0  0
   -7.1194    2.8438    0.3714 H   0  0  0  0  0  0  0  0  0  0  0  0
   -6.0878    2.9025   -1.0608 H   0  0  0  0  0  0  0  0  0  0  0  0
   -6.3887    0.7201    1.0271 H   0  0  0  0  0  0  0  0  0  0  0  0
   -6.2918    0.5745   -0.7155 H   0  0  0  0  0  0  0  0  0  0  0  0
   -1.5715   -5.2216    0.9568 H   0  0  0  0  0  0  0  0  0  0  0  0
   -0.4784   -4.2726   -0.2052 H   0  0  0  0  0  0  0  0  0  0  0  0
   -0.5150   -0.4866   -1.2120 H   0  0  0  0  0  0  0  0  0  0  0  0
    1.5428   -0.3808   -2.5260 H   0  0  0  0  0  0  0  0  0  0  0  0
    5.1918    1.6267   -2.1924 H   0  0  0  0  0  0  0  0  0  0  0  0
    4.9840    3.7491   -0.9163 H   0  0  0  0  0  0  0  0  0  0  0  0
    4.9662    3.7130    1.5661 H   0  0  0  0  0  0  0  0  0  0  0  0
    5.1597    1.5578    2.7782 H   0  0  0  0  0  0  0  0  0  0  0  0
    5.3586   -0.5700    1.5230 H   0  0  0  0  0  0  0  0  0  0  0  0
  1  2  2  0
  2  3  2  0
  2  4  1  0
  4  5  1  0
  5  6  2  0
  6  7  1  0
  7  8  2  0
  8  9  1  0
  9 10  1  0
 10 11  2  0
 11 12  1  0
 12 13  1  0
 13 14  1  0
 14 15  1  0
 15 16  1  0
 16 17  1  0
 17 18  1  0
 11 19  1  0
 19 20  2  0
 20 21  1  0
 21 22  1  0
  8 23  1  0
 23 24  2  0
  2 25  1  0
 25 26  2  0
 26 27  1  0
 27 28  2  0
 28 29  1  0
 29 30  2  0
 24  5  1  0
 30 25  1  0
 22  9  1  0
 18 13  1  0
 22 20  1  0
  4 31  1  0
  6 32  1  0
  7 33  1  0
  9 34  1  0
 12 35  1  0
 13 36  1  0
 14 37  1  0
 14 38  1  0
 15 39  1  0
 15 40  1  0
 17 41  1  0
 17 42  1  0
 18 43  1  0
 18 44  1  0
 21 45  1  0
 21 46  1  0
 23 47  1  0
 24 48  1  0
 26 49  1  0
 27 50  1  0
 28 51  1  0
 29 52  1  0
 30 53  1  0
M  END
$$$$
