
     RDKit          3D

 49 51  0  0  0  0  0  0  0  0999 V2000
   -7.5427   -0.8176    3.6746 C   0  0  0  0  0  0  0  0  0  0  0  0
   -7.6254    0.3429    3.0137 C   0  0  0  0  0  0  0  0  0  0  0  0
   -6.8731    0.6453    1.7900 C   0  0  0  0  0  0  0  0  0  0  0  0
   -7.5133    1.3424    0.7584 C   0  0  0  0  0  0  0  0  0  0  0  0
   -6.8199    1.6736   -0.4047 C   0  0  0  0  0  0  0  0  0  0  0  0
   -5.4758    1.3187   -0.5406 C   0  0  0  0  0  0  0  0  0  0  0  0
   -4.8067    0.6269    0.4795 C   0  0  0  0  0  0  0  0  0  0  0  0
   -3.3759    0.3277    0.2967 C   0  0  0  0  0  0  0  0  0  0  0  0
   -2.6909   -0.6230    0.9496 C   0  0  0  0  0  0  0  0  0  0  0  0
   -1.3029   -0.8238    0.7182 C   0  0  0  0  0  0  0  0  0  0  0  0
   -0.5160   -1.6550    1.3885 N   0  0  0  0  0  0  0  0  0  0  0  0
    0.7574   -1.5383    0.8719 N   0  0  0  0  0  0  0  0  0  0  0  0
    0.6809   -0.6515   -0.0911 C   0  0  0  0  0  0  0  0  0  0  0  0
    1.7038   -0.2193   -0.8777 N   0  0  0  0  0  0  0  0  0  0  0  0
    1.5606    0.7205   -1.8667 C   0  0  0  0  0  0  0  0  0  0  0  0
    0.5135    1.2592   -2.2166 O   0  0  0  0  0  0  0  0  0  0  0  0
    2.8548    1.0125   -2.6077 C   0  0  0  0  0  0  0  0  0  0  0  0
    4.0421    1.2727   -1.6758 C   0  0  0  0  0  0  0  0  0  0  0  0
    4.5256    0.0484   -0.9956 N   0  0  0  0  0  0  0  0  0  0  0  0
    5.2866   -0.8268   -1.9203 C   0  0  0  0  0  0  0  0  0  0  0  0
    5.9212   -2.0419   -1.2056 C   0  0  0  0  0  0  0  0  0  0  0  0
    6.7929   -1.6558   -0.0874 N   0  0  0  0  0  0  0  0  0  0  0  0
    6.0257   -0.8082    0.8382 C   0  0  0  0  0  0  0  0  0  0  0  0
    5.3952    0.4199    0.1460 C   0  0  0  0  0  0  0  0  0  0  0  0
   -0.5749   -0.1559   -0.2504 O   0  0  0  0  0  0  0  0  0  0  0  0
   -5.5163    0.3074    1.6480 C   0  0  0  0  0  0  0  0  0  0  0  0
   -8.1348   -0.9848    4.5674 H   0  0  0  0  0  0  0  0  0  0  0  0
   -6.9070   -1.6305    3.3426 H   0  0  0  0  0  0  0  0  0  0  0  0
   -8.3027    1.1164    3.3677 H   0  0  0  0  0  0  0  0  0  0  0  0
   -8.5600    1.6276    0.8498 H   0  0  0  0  0  0  0  0  0  0  0  0
   -7.3241    2.2117   -1.2045 H   0  0  0  0  0  0  0  0  0  0  0  0
   -4.9543    1.5931   -1.4554 H   0  0  0  0  0  0  0  0  0  0  0  0
   -2.8654    0.9478   -0.4398 H   0  0  0  0  0  0  0  0  0  0  0  0
   -3.1556   -1.2704    1.6829 H   0  0  0  0  0  0  0  0  0  0  0  0
    2.6289   -0.5852   -0.6627 H   0  0  0  0  0  0  0  0  0  0  0  0
    2.6875    1.9181   -3.2064 H   0  0  0  0  0  0  0  0  0  0  0  0
    3.0442    0.1977   -3.3133 H   0  0  0  0  0  0  0  0  0  0  0  0
    4.8567    1.7466   -2.2402 H   0  0  0  0  0  0  0  0  0  0  0  0
    3.7175    2.0026   -0.9215 H   0  0  0  0  0  0  0  0  0  0  0  0
    6.0826   -0.2543   -2.4168 H   0  0  0  0  0  0  0  0  0  0  0  0
    4.6200   -1.2169   -2.6977 H   0  0  0  0  0  0  0  0  0  0  0  0
    5.1336   -2.7111   -0.8361 H   0  0  0  0  0  0  0  0  0  0  0  0
    6.5105   -2.6163   -1.9270 H   0  0  0  0  0  0  0  0  0  0  0  0
    7.5673   -1.1049   -0.4580 H   0  0  0  0  0  0  0  0  0  0  0  0
    5.2459   -1.4084    1.3235 H   0  0  0  0  0  0  0  0  0  0  0  0
    6.6949   -0.4669    1.6339 H   0  0  0  0  0  0  0  0  0  0  0  0
    4.8012    0.9626    0.8908 H   0  0  0  0  0  0  0  0  0  0  0  0
    6.1983    1.0928   -0.1862 H   0  0  0  0  0  0  0  0  0  0  0  0
   -5.0120   -0.1883    2.4737 H   0  0  0  0  0  0  0  0  0  0  0  0
  1  2  2  0
  2  3  1  0
  3  4  2  0
  4  5  1  0
  5  6  2  0
  6  7  1  0
  7  8  1  0
  8  9  2  3
  9 10  1  0
 10 11  2  0
 11 12  1  0
 12 13  2  0
 13 14  1  0
 14 15  1  0
 15 16  2  0
 15 17  1  0
 17 18  1  0
 18 19  1  0
 19 20  1  0
 20 21  1  0
 21 22  1  0
 22 23  1  0
 23 24  1  0
 13 25  1  0
  7 26  2  0
 26  3  1  0
 25 10  1  0
 24 19  1  0
  1 27  1  0
  1 28  1  0
  2 29  1  0
  4 30  1  0
  5 31  1  0
  6 32  1  0
  8 33  1  0
  9 34  1  0
 14 35  1  0
 17 36  1  0
 17 37  1  0
 18 38  1  0
 18 39  1  0
 20 40  1  0
 20 41  1  0
 21 42  1  0
 21 43  1  0
 22 44  1  0
 23 45  1  0
 23 46  1  0
 24 47  1  0
 24 48  1  0
 26 49  1  0
M  END
$$$$
