
     RDKit          3D

 55 58  0  0  0  0  0  0  0  0999 V2000
    9.2057   -1.5027    2.4479 C   0  0  0  0  0  0  0  0  0  0  0  0
    9.0426   -1.1742    1.1598 C   0  0  0  0  0  0  0  0  0  0  0  0
    8.0023   -0.2681    0.6553 C   0  0  0  0  0  0  0  0  0  0  0  0
    8.2813    0.5263   -0.4603 C   0  0  0  0  0  0  0  0  0  0  0  0
    7.3134    1.3885   -0.9889 C   0  0  0  0  0  0  0  0  0  0  0  0
    6.0386    1.4620   -0.4191 C   0  0  0  0  0  0  0  0  0  0  0  0
    5.0443    2.2983   -0.8572 O   0  0  0  0  0  0  0  0  0  0  0  0
    5.3393    3.1676   -1.9414 C   0  0  0  0  0  0  0  0  0  0  0  0
    5.7341    0.6429    0.6856 C   0  0  0  0  0  0  0  0  0  0  0  0
    4.4198    0.6416    1.3481 C   0  0  0  0  0  0  0  0  0  0  0  0
    3.2384    0.3485    0.7912 C   0  0  0  0  0  0  0  0  0  0  0  0
    2.7932   -0.0395   -0.4980 C   0  0  0  0  0  0  0  0  0  0  0  0
    1.5827   -0.0566    0.0721 C   0  0  0  0  0  0  0  0  0  0  0  0
    0.1440   -0.3712   -0.4235 C   0  0  0  0  0  0  0  0  0  0  0  0
   -0.1391   -0.7243   -1.6844 C   0  0  0  0  0  0  0  0  0  0  0  0
   -1.4671   -1.0037   -2.0997 C   0  0  0  0  0  0  0  0  0  0  0  0
   -1.8415   -1.3575   -3.3223 N   0  0  0  0  0  0  0  0  0  0  0  0
   -3.2081   -1.5361   -3.3093 N   0  0  0  0  0  0  0  0  0  0  0  0
   -3.5966   -1.2828   -2.0829 C   0  0  0  0  0  0  0  0  0  0  0  0
   -4.8782   -1.3371   -1.6189 N   0  0  0  0  0  0  0  0  0  0  0  0
   -5.2212   -1.0598   -0.3147 C   0  0  0  0  0  0  0  0  0  0  0  0
   -4.4496   -0.7445    0.5830 O   0  0  0  0  0  0  0  0  0  0  0  0
   -6.7197   -1.2027   -0.0934 C   0  0  0  0  0  0  0  0  0  0  0  0
   -7.1453   -0.8220    1.3316 C   0  0  0  0  0  0  0  0  0  0  0  0
   -7.1217    0.6803    1.5956 C   0  0  0  0  0  0  0  0  0  0  0  0
   -8.4802    1.1819    1.1273 C   0  0  0  0  0  0  0  0  0  0  0  0
   -9.3629   -0.0547    1.0545 C   0  0  0  0  0  0  0  0  0  0  0  0
   -8.5566   -1.1470    1.5915 N   0  0  0  0  0  0  0  0  0  0  0  0
   -2.5679   -0.9417   -1.2649 O   0  0  0  0  0  0  0  0  0  0  0  0
    2.0281    0.2918    1.2259 O   0  0  0  0  0  0  0  0  0  0  0  0
    6.7203   -0.2087    1.2144 C   0  0  0  0  0  0  0  0  0  0  0  0
    8.5727   -1.1106    3.2371 H   0  0  0  0  0  0  0  0  0  0  0  0
   10.0056   -2.1741    2.7452 H   0  0  0  0  0  0  0  0  0  0  0  0
    9.7283   -1.5796    0.4189 H   0  0  0  0  0  0  0  0  0  0  0  0
    9.2645    0.4939   -0.9256 H   0  0  0  0  0  0  0  0  0  0  0  0
    7.5930    1.9921   -1.8459 H   0  0  0  0  0  0  0  0  0  0  0  0
    4.4459    3.7672   -2.1412 H   0  0  0  0  0  0  0  0  0  0  0  0
    5.5685    2.6009   -2.8498 H   0  0  0  0  0  0  0  0  0  0  0  0
    6.1517    3.8562   -1.6871 H   0  0  0  0  0  0  0  0  0  0  0  0
    4.4305    0.8913    2.4049 H   0  0  0  0  0  0  0  0  0  0  0  0
    3.2484   -0.2179   -1.4592 H   0  0  0  0  0  0  0  0  0  0  0  0
   -0.6320   -0.2839    0.3338 H   0  0  0  0  0  0  0  0  0  0  0  0
    0.6400   -0.8087   -2.4334 H   0  0  0  0  0  0  0  0  0  0  0  0
   -5.5713   -1.6005   -2.3032 H   0  0  0  0  0  0  0  0  0  0  0  0
   -6.9741   -2.2536   -0.2831 H   0  0  0  0  0  0  0  0  0  0  0  0
   -7.2407   -0.5906   -0.8396 H   0  0  0  0  0  0  0  0  0  0  0  0
   -6.5137   -1.3452    2.0584 H   0  0  0  0  0  0  0  0  0  0  0  0
   -6.3020    1.2055    1.0963 H   0  0  0  0  0  0  0  0  0  0  0  0
   -7.0235    0.8652    2.6732 H   0  0  0  0  0  0  0  0  0  0  0  0
   -8.8788    1.9293    1.8213 H   0  0  0  0  0  0  0  0  0  0  0  0
   -8.3982    1.6489    0.1394 H   0  0  0  0  0  0  0  0  0  0  0  0
   -9.6440   -0.2596    0.0153 H   0  0  0  0  0  0  0  0  0  0  0  0
  -10.2829    0.0699    1.6334 H   0  0  0  0  0  0  0  0  0  0  0  0
   -8.8302   -2.0442    1.1973 H   0  0  0  0  0  0  0  0  0  0  0  0
    6.4704   -0.8463    2.0600 H   0  0  0  0  0  0  0  0  0  0  0  0
  1  2  2  0
  2  3  1  0
  3  4  2  0
  4  5  1  0
  5  6  2  0
  6  7  1  0
  7  8  1  0
  6  9  1  0
  9 10  1  0
 10 11  2  3
 11 12  1  0
 12 13  2  0
 13 14  1  0
 14 15  2  3
 15 16  1  0
 16 17  2  0
 17 18  1  0
 18 19  2  0
 19 20  1  0
 20 21  1  0
 21 22  2  0
 21 23  1  0
 23 24  1  0
 24 25  1  0
 25 26  1  0
 26 27  1  0
 27 28  1  0
 19 29  1  0
 13 30  1  0
  9 31  2  0
 31  3  1  0
 30 11  1  0
 29 16  1  0
 28 24  1  0
  1 32  1  0
  1 33  1  0
  2 34  1  0
  4 35  1  0
  5 36  1  0
  8 37  1  0
  8 38  1  0
  8 39  1  0
 10 40  1  0
 12 41  1  0
 14 42  1  0
 15 43  1  0
 20 44  1  0
 23 45  1  0
 23 46  1  0
 24 47  1  0
 25 48  1  0
 25 49  1  0
 26 50  1  0
 26 51  1  0
 27 52  1  0
 27 53  1  0
 28 54  1  0
 31 55  1  0
M  END
$$$$
