
     RDKit          3D

 73 78  0  0  0  0  0  0  0  0999 V2000
    2.6019   -4.1313    1.5032 C   0  0  0  0  0  0  0  0  0  0  0  0
    2.8751   -2.7012    1.1337 C   0  0  0  0  0  0  0  0  0  0  0  0
    3.9627   -2.0486    1.7421 C   0  0  0  0  0  0  0  0  0  0  0  0
    4.2821   -0.7306    1.4135 C   0  0  0  0  0  0  0  0  0  0  0  0
    5.4407   -0.1160    1.9652 N   0  0  0  0  0  0  0  0  0  0  0  0
    6.9164   -0.4051    1.1813 S   0  0  0  0  0  0  0  0  0  0  0  0
    7.9451    0.1152    2.0610 O   0  0  0  0  0  0  0  0  0  0  0  0
    6.9614   -1.7833    0.7405 O   0  0  0  0  0  0  0  0  0  0  0  0
    6.8271    0.6630   -0.2314 C   0  0  0  0  0  0  0  0  0  0  0  0
    6.5188    0.1287   -1.4881 C   0  0  0  0  0  0  0  0  0  0  0  0
    6.4553    0.9744   -2.5939 C   0  0  0  0  0  0  0  0  0  0  0  0
    6.7121    2.3392   -2.4437 C   0  0  0  0  0  0  0  0  0  0  0  0
    7.0379    2.8640   -1.1921 C   0  0  0  0  0  0  0  0  0  0  0  0
    7.0973    2.0267   -0.0782 C   0  0  0  0  0  0  0  0  0  0  0  0
    3.5233   -0.0399    0.4793 C   0  0  0  0  0  0  0  0  0  0  0  0
    2.4380   -0.6712   -0.1270 C   0  0  0  0  0  0  0  0  0  0  0  0
    2.0940   -2.0046    0.1823 C   0  0  0  0  0  0  0  0  0  0  0  0
    0.9433   -2.6627   -0.5855 C   0  0  0  0  0  0  0  0  0  0  0  0
   -0.1906   -1.7648   -0.7012 N   0  0  0  0  0  0  0  0  0  0  0  0
   -0.8379   -1.9154   -1.8061 C   0  0  0  0  0  0  0  0  0  0  0  0
   -1.9116   -1.1420   -2.1310 N   0  0  0  0  0  0  0  0  0  0  0  0
   -2.6430   -0.2389   -1.2622 C   0  0  0  0  0  0  0  0  0  0  0  0
   -3.3044   -0.9590   -0.0833 C   0  0  0  0  0  0  0  0  0  0  0  0
   -3.3491   -0.0689    1.1635 C   0  0  0  0  0  0  0  0  0  0  0  0
   -3.6964    1.3296    0.8723 N   0  0  0  0  0  0  0  0  0  0  0  0
   -5.0855    1.5640    0.3906 C   0  0  0  0  0  0  0  0  0  0  0  0
   -6.1989    0.9691    1.2985 C   0  0  0  0  0  0  0  0  0  0  0  0
   -6.6605    1.9481    2.3765 C   0  0  0  0  0  0  0  0  0  0  0  0
   -7.3156    3.1874    1.7587 C   0  0  0  0  0  0  0  0  0  0  0  0
   -6.8097    3.4830    0.3461 C   0  0  0  0  0  0  0  0  0  0  0  0
   -5.3418    3.0898    0.1911 C   0  0  0  0  0  0  0  0  0  0  0  0
   -2.6491    1.9317    0.0124 C   0  0  0  0  0  0  0  0  0  0  0  0
   -1.7981    0.9417   -0.7987 C   0  0  0  0  0  0  0  0  0  0  0  0
   -0.5590   -2.8763   -2.7321 N   0  0  0  0  0  0  0  0  0  0  0  0
    0.4718   -3.6588   -2.7069 C   0  0  0  0  0  0  0  0  0  0  0  0
    1.6743   -4.3465   -2.2524 C   0  0  0  0  0  0  0  0  0  0  0  0
    1.4491   -3.0518   -1.8747 N   0  0  0  0  0  0  0  0  0  0  0  0
    1.6090   -4.2234    1.9573 H   0  0  0  0  0  0  0  0  0  0  0  0
    3.3291   -4.5079    2.2346 H   0  0  0  0  0  0  0  0  0  0  0  0
    2.6709   -4.7729    0.6202 H   0  0  0  0  0  0  0  0  0  0  0  0
    4.5906   -2.5876    2.4481 H   0  0  0  0  0  0  0  0  0  0  0  0
    5.5692   -0.1927    2.9749 H   0  0  0  0  0  0  0  0  0  0  0  0
    6.3176   -0.9334   -1.6071 H   0  0  0  0  0  0  0  0  0  0  0  0
    6.2066    0.5701   -3.5723 H   0  0  0  0  0  0  0  0  0  0  0  0
    6.6642    2.9951   -3.3099 H   0  0  0  0  0  0  0  0  0  0  0  0
    7.2380    3.9291   -1.0815 H   0  0  0  0  0  0  0  0  0  0  0  0
    7.3531    2.4356    0.8965 H   0  0  0  0  0  0  0  0  0  0  0  0
    3.7711    0.9829    0.2051 H   0  0  0  0  0  0  0  0  0  0  0  0
    1.8606   -0.1243   -0.8723 H   0  0  0  0  0  0  0  0  0  0  0  0
    0.5910   -3.5314   -0.0132 H   0  0  0  0  0  0  0  0  0  0  0  0
   -2.4214   -1.5205   -2.9147 H   0  0  0  0  0  0  0  0  0  0  0  0
   -3.4460    0.1775   -1.8842 H   0  0  0  0  0  0  0  0  0  0  0  0
   -4.3194   -1.2631   -0.3724 H   0  0  0  0  0  0  0  0  0  0  0  0
   -2.7820   -1.8874    0.1700 H   0  0  0  0  0  0  0  0  0  0  0  0
   -3.9982   -0.5165    1.9210 H   0  0  0  0  0  0  0  0  0  0  0  0
   -2.3593   -0.0787    1.6406 H   0  0  0  0  0  0  0  0  0  0  0  0
   -5.1964    1.0831   -0.5910 H   0  0  0  0  0  0  0  0  0  0  0  0
   -7.0581    0.7150    0.6610 H   0  0  0  0  0  0  0  0  0  0  0  0
   -5.9153    0.0234    1.7708 H   0  0  0  0  0  0  0  0  0  0  0  0
   -5.8015    2.2488    2.9870 H   0  0  0  0  0  0  0  0  0  0  0  0
   -7.3724    1.4619    3.0532 H   0  0  0  0  0  0  0  0  0  0  0  0
   -8.4047    3.0613    1.7240 H   0  0  0  0  0  0  0  0  0  0  0  0
   -7.1255    4.0490    2.4117 H   0  0  0  0  0  0  0  0  0  0  0  0
   -6.9350    4.5538    0.1285 H   0  0  0  0  0  0  0  0  0  0  0  0
   -7.4163    2.9385   -0.3953 H   0  0  0  0  0  0  0  0  0  0  0  0
   -5.0125    3.3921   -0.8116 H   0  0  0  0  0  0  0  0  0  0  0  0
   -4.7510    3.6729    0.9138 H   0  0  0  0  0  0  0  0  0  0  0  0
   -1.9720    2.4934    0.6698 H   0  0  0  0  0  0  0  0  0  0  0  0
   -3.0450    2.6747   -0.6857 H   0  0  0  0  0  0  0  0  0  0  0  0
   -1.3537    1.4587   -1.6591 H   0  0  0  0  0  0  0  0  0  0  0  0
   -0.9603    0.6054   -0.1815 H   0  0  0  0  0  0  0  0  0  0  0  0
    1.5420   -5.1275   -1.5192 H   0  0  0  0  0  0  0  0  0  0  0  0
    2.4564   -4.4938   -2.9783 H   0  0  0  0  0  0  0  0  0  0  0  0
  1  2  1  0
  2  3  2  0
  3  4  1  0
  4  5  1  0
  5  6  1  0
  6  7  2  0
  6  8  2  0
  6  9  1  0
  9 10  2  0
 10 11  1  0
 11 12  2  0
 12 13  1  0
 13 14  2  0
  4 15  2  0
 15 16  1  0
 16 17  2  0
 17 18  1  0
 18 19  1  0
 19 20  2  0
 20 21  1  0
 21 22  1  0
 22 23  1  0
 23 24  1  0
 24 25  1  0
 25 26  1  0
 26 27  1  0
 27 28  1  0
 28 29  1  0
 29 30  1  0
 30 31  1  0
 25 32  1  0
 32 33  1  0
 20 34  1  0
 34 35  2  0
 35 36  1  0
 36 37  1  0
 17  2  1  0
 37 18  1  0
 14  9  1  0
 33 22  1  0
 37 35  1  0
 31 26  1  0
  1 38  1  0
  1 39  1  0
  1 40  1  0
  3 41  1  0
  5 42  1  0
 10 43  1  0
 11 44  1  0
 12 45  1  0
 13 46  1  0
 14 47  1  0
 15 48  1  0
 16 49  1  0
 18 50  1  0
 21 51  1  0
 22 52  1  0
 23 53  1  0
 23 54  1  0
 24 55  1  0
 24 56  1  0
 26 57  1  0
 27 58  1  0
 27 59  1  0
 28 60  1  0
 28 61  1  0
 29 62  1  0
 29 63  1  0
 30 64  1  0
 30 65  1  0
 31 66  1  0
 31 67  1  0
 32 68  1  0
 32 69  1  0
 33 70  1  0
 33 71  1  0
 36 72  1  0
 36 73  1  0
M  END
$$$$
