
     RDKit          3D

 54 58  0  0  0  0  0  0  0  0999 V2000
    4.3980    1.0010   -2.2781 O   0  0  0  0  0  0  0  0  0  0  0  0
    5.1120   -0.2245   -1.9896 S   0  0  0  0  0  0  0  0  0  0  0  0
    5.9910   -0.8241   -2.9723 O   0  0  0  0  0  0  0  0  0  0  0  0
    4.0105   -1.4326   -1.5516 N   0  0  0  0  0  0  0  0  0  0  0  0
    2.8278   -1.0355   -0.8706 C   0  0  0  0  0  0  0  0  0  0  0  0
    2.8484   -0.8435    0.5085 C   0  0  0  0  0  0  0  0  0  0  0  0
    1.6995   -0.3981    1.1663 C   0  0  0  0  0  0  0  0  0  0  0  0
    0.5166   -0.1365    0.4513 C   0  0  0  0  0  0  0  0  0  0  0  0
   -0.7146    0.3926    1.1855 C   0  0  0  0  0  0  0  0  0  0  0  0
   -1.9658   -0.0975    0.6374 N   0  0  0  0  0  0  0  0  0  0  0  0
   -2.6538    0.8067    0.0329 C   0  0  0  0  0  0  0  0  0  0  0  0
   -3.8851    0.5322   -0.4885 N   0  0  0  0  0  0  0  0  0  0  0  0
   -4.7133   -0.5813   -0.0481 C   0  0  0  0  0  0  0  0  0  0  0  0
   -5.3605   -0.2788    1.3108 C   0  0  0  0  0  0  0  0  0  0  0  0
   -6.8134    0.1543    1.1550 C   0  0  0  0  0  0  0  0  0  0  0  0
   -7.6340   -0.8721    0.5123 N   0  0  0  0  0  0  0  0  0  0  0  0
   -6.9518   -1.6142   -0.5472 C   0  0  0  0  0  0  0  0  0  0  0  0
   -5.7570   -0.8749   -1.1337 C   0  0  0  0  0  0  0  0  0  0  0  0
   -2.2261    2.0797   -0.1919 N   0  0  0  0  0  0  0  0  0  0  0  0
   -1.1298    2.5767    0.2688 C   0  0  0  0  0  0  0  0  0  0  0  0
    0.1551    2.7567    0.9197 C   0  0  0  0  0  0  0  0  0  0  0  0
   -0.7211    1.8183    1.3977 N   0  0  0  0  0  0  0  0  0  0  0  0
    0.5194   -0.3285   -0.9408 C   0  0  0  0  0  0  0  0  0  0  0  0
    1.6695   -0.7717   -1.5985 C   0  0  0  0  0  0  0  0  0  0  0  0
    6.0594   -0.0037   -0.5055 C   0  0  0  0  0  0  0  0  0  0  0  0
    6.9762   -0.9894   -0.1270 C   0  0  0  0  0  0  0  0  0  0  0  0
    7.7292   -0.8151    1.0338 C   0  0  0  0  0  0  0  0  0  0  0  0
    7.5701    0.3394    1.8030 C   0  0  0  0  0  0  0  0  0  0  0  0
    6.6617    1.3259    1.4139 C   0  0  0  0  0  0  0  0  0  0  0  0
    5.9048    1.1597    0.2542 C   0  0  0  0  0  0  0  0  0  0  0  0
    3.9088   -2.1098   -2.3069 H   0  0  0  0  0  0  0  0  0  0  0  0
    3.7473   -1.0470    1.0837 H   0  0  0  0  0  0  0  0  0  0  0  0
    1.7313   -0.2484    2.2440 H   0  0  0  0  0  0  0  0  0  0  0  0
   -0.6660   -0.0477    2.1902 H   0  0  0  0  0  0  0  0  0  0  0  0
   -4.3759    1.3779   -0.7509 H   0  0  0  0  0  0  0  0  0  0  0  0
   -4.0838   -1.4735    0.0628 H   0  0  0  0  0  0  0  0  0  0  0  0
   -4.8033    0.4850    1.8655 H   0  0  0  0  0  0  0  0  0  0  0  0
   -5.3306   -1.1869    1.9277 H   0  0  0  0  0  0  0  0  0  0  0  0
   -6.8624    1.0844    0.5754 H   0  0  0  0  0  0  0  0  0  0  0  0
   -7.2394    0.3734    2.1401 H   0  0  0  0  0  0  0  0  0  0  0  0
   -8.4895   -0.4467    0.1548 H   0  0  0  0  0  0  0  0  0  0  0  0
   -6.6211   -2.5767   -0.1389 H   0  0  0  0  0  0  0  0  0  0  0  0
   -7.6699   -1.8471   -1.3415 H   0  0  0  0  0  0  0  0  0  0  0  0
   -6.1026    0.0524   -1.6107 H   0  0  0  0  0  0  0  0  0  0  0  0
   -5.2990   -1.4723   -1.9317 H   0  0  0  0  0  0  0  0  0  0  0  0
    0.2663    3.6499    1.5163 H   0  0  0  0  0  0  0  0  0  0  0  0
    1.0257    2.4517    0.3594 H   0  0  0  0  0  0  0  0  0  0  0  0
   -0.3765   -0.1239   -1.5245 H   0  0  0  0  0  0  0  0  0  0  0  0
    1.6518   -0.8900   -2.6783 H   0  0  0  0  0  0  0  0  0  0  0  0
    7.1074   -1.8853   -0.7296 H   0  0  0  0  0  0  0  0  0  0  0  0
    8.4448   -1.5754    1.3371 H   0  0  0  0  0  0  0  0  0  0  0  0
    8.1620    0.4743    2.7054 H   0  0  0  0  0  0  0  0  0  0  0  0
    6.5491    2.2268    2.0124 H   0  0  0  0  0  0  0  0  0  0  0  0
    5.2026    1.9336   -0.0477 H   0  0  0  0  0  0  0  0  0  0  0  0
  1  2  2  0
  2  3  2  0
  2  4  1  0
  4  5  1  0
  5  6  2  0
  6  7  1  0
  7  8  2  0
  8  9  1  0
  9 10  1  0
 10 11  2  0
 11 12  1  0
 12 13  1  0
 13 14  1  0
 14 15  1  0
 15 16  1  0
 16 17  1  0
 17 18  1  0
 11 19  1  0
 19 20  2  0
 20 21  1  0
 21 22  1  0
  8 23  1  0
 23 24  2  0
  2 25  1  0
 25 26  2  0
 26 27  1  0
 27 28  2  0
 28 29  1  0
 29 30  2  0
 24  5  1  0
 30 25  1  0
 22  9  1  0
 18 13  1  0
 22 20  1  0
  4 31  1  0
  6 32  1  0
  7 33  1  0
  9 34  1  0
 12 35  1  0
 13 36  1  0
 14 37  1  0
 14 38  1  0
 15 39  1  0
 15 40  1  0
 16 41  1  0
 17 42  1  0
 17 43  1  0
 18 44  1  0
 18 45  1  0
 21 46  1  0
 21 47  1  0
 23 48  1  0
 24 49  1  0
 26 50  1  0
 27 51  1  0
 28 52  1  0
 29 53  1  0
 30 54  1  0
M  END
$$$$
