
     RDKit          3D

 50 54  0  0  0  0  0  0  0  0999 V2000
   -5.6677    1.0828   -1.0035 C   0  0  0  0  0  0  0  0  0  0  0  0
   -5.0400    0.0189   -0.2554 N   0  0  0  0  0  0  0  0  0  0  0  0
   -3.6828   -0.2292   -0.1564 C   0  0  0  0  0  0  0  0  0  0  0  0
   -2.6195    0.4843   -0.8708 C   0  0  0  0  0  0  0  0  0  0  0  0
   -2.6868    0.7383   -2.2443 C   0  0  0  0  0  0  0  0  0  0  0  0
   -1.6546    1.4265   -2.8822 C   0  0  0  0  0  0  0  0  0  0  0  0
   -0.5379    1.8534   -2.1584 C   0  0  0  0  0  0  0  0  0  0  0  0
   -0.4339    1.5812   -0.7943 C   0  0  0  0  0  0  0  0  0  0  0  0
    0.6663    1.9546    0.0067 N   0  0  0  0  0  0  0  0  0  0  0  0
    1.8163    2.6184   -0.3935 C   0  0  0  0  0  0  0  0  0  0  0  0
    2.0706    3.0142   -1.5285 O   0  0  0  0  0  0  0  0  0  0  0  0
    2.7902    2.8690    0.7372 C   0  0  0  0  0  0  0  0  0  0  0  0
    3.4444    1.5963    1.0805 C   0  0  0  0  0  0  0  0  0  0  0  0
    3.1057    0.7135    1.9959 N   0  0  0  0  0  0  0  0  0  0  0  0
    4.0286   -0.3073    1.9030 N   0  0  0  0  0  0  0  0  0  0  0  0
    4.8659    0.0232    0.9379 C   0  0  0  0  0  0  0  0  0  0  0  0
    6.0235   -0.6897    0.4116 C   0  0  0  0  0  0  0  0  0  0  0  0
    6.3970   -1.9216    0.9772 C   0  0  0  0  0  0  0  0  0  0  0  0
    7.5030   -2.6255    0.4916 C   0  0  0  0  0  0  0  0  0  0  0  0
    8.2397   -2.1004   -0.5628 C   0  0  0  0  0  0  0  0  0  0  0  0
    9.3008   -2.7728   -1.0282 F   0  0  0  0  0  0  0  0  0  0  0  0
    7.8909   -0.8863   -1.1414 C   0  0  0  0  0  0  0  0  0  0  0  0
    6.7850   -0.1816   -0.6556 C   0  0  0  0  0  0  0  0  0  0  0  0
    4.5591    1.2365    0.3739 O   0  0  0  0  0  0  0  0  0  0  0  0
   -1.4780    0.8921   -0.1620 C   0  0  0  0  0  0  0  0  0  0  0  0
   -3.4626   -1.1839    0.7299 N   0  0  0  0  0  0  0  0  0  0  0  0
   -4.6958   -1.6166    1.1550 C   0  0  0  0  0  0  0  0  0  0  0  0
   -5.0468   -2.6281    2.0657 C   0  0  0  0  0  0  0  0  0  0  0  0
   -4.1089   -3.3556    2.6891 F   0  0  0  0  0  0  0  0  0  0  0  0
   -6.3936   -2.8826    2.3336 C   0  0  0  0  0  0  0  0  0  0  0  0
   -7.3904   -2.1362    1.7046 C   0  0  0  0  0  0  0  0  0  0  0  0
   -7.0692   -1.1188    0.7962 C   0  0  0  0  0  0  0  0  0  0  0  0
   -5.7093   -0.8830    0.5432 C   0  0  0  0  0  0  0  0  0  0  0  0
   -6.6122    1.3597   -0.5283 H   0  0  0  0  0  0  0  0  0  0  0  0
   -5.8514    0.7242   -2.0191 H   0  0  0  0  0  0  0  0  0  0  0  0
   -5.0170    1.9606   -1.0103 H   0  0  0  0  0  0  0  0  0  0  0  0
   -3.5263    0.3856   -2.8372 H   0  0  0  0  0  0  0  0  0  0  0  0
   -1.7084    1.6224   -3.9505 H   0  0  0  0  0  0  0  0  0  0  0  0
    0.2421    2.3810   -2.6985 H   0  0  0  0  0  0  0  0  0  0  0  0
    0.6293    1.6345    0.9704 H   0  0  0  0  0  0  0  0  0  0  0  0
    2.2521    3.2797    1.5989 H   0  0  0  0  0  0  0  0  0  0  0  0
    3.5239    3.6186    0.4215 H   0  0  0  0  0  0  0  0  0  0  0  0
    5.8231   -2.3416    1.8030 H   0  0  0  0  0  0  0  0  0  0  0  0
    7.7898   -3.5770    0.9285 H   0  0  0  0  0  0  0  0  0  0  0  0
    8.4791   -0.4956   -1.9663 H   0  0  0  0  0  0  0  0  0  0  0  0
    6.5240    0.7666   -1.1221 H   0  0  0  0  0  0  0  0  0  0  0  0
   -1.4181    0.6563    0.8997 H   0  0  0  0  0  0  0  0  0  0  0  0
   -6.6525   -3.6676    3.0379 H   0  0  0  0  0  0  0  0  0  0  0  0
   -8.4353   -2.3473    1.9240 H   0  0  0  0  0  0  0  0  0  0  0  0
   -7.8517   -0.5440    0.3118 H   0  0  0  0  0  0  0  0  0  0  0  0
  1  2  1  0
  2  3  1  0
  3  4  1  0
  4  5  2  0
  5  6  1  0
  6  7  2  0
  7  8  1  0
  8  9  1  0
  9 10  1  0
 10 11  2  0
 10 12  1  0
 12 13  1  0
 13 14  2  0
 14 15  1  0
 15 16  2  0
 16 17  1  0
 17 18  2  0
 18 19  1  0
 19 20  2  0
 20 21  1  0
 20 22  1  0
 22 23  2  0
 16 24  1  0
  8 25  2  0
  3 26  2  0
 26 27  1  0
 27 28  2  0
 28 29  1  0
 28 30  1  0
 30 31  2  0
 31 32  1  0
 32 33  2  0
 33  2  1  0
 25  4  1  0
 33 27  1  0
 24 13  1  0
 23 17  1  0
  1 34  1  0
  1 35  1  0
  1 36  1  0
  5 37  1  0
  6 38  1  0
  7 39  1  0
  9 40  1  0
 12 41  1  0
 12 42  1  0
 18 43  1  0
 19 44  1  0
 22 45  1  0
 23 46  1  0
 25 47  1  0
 30 48  1  0
 31 49  1  0
 32 50  1  0
M  END
$$$$
