
     RDKit          3D

 69 73  0  0  0  0  0  0  0  0999 V2000
    8.4531    0.3464   -2.8685 C   0  0  0  0  0  0  0  0  0  0  0  0
    7.5296    1.0464   -2.0319 O   0  0  0  0  0  0  0  0  0  0  0  0
    7.7166    0.7298   -0.7050 C   0  0  0  0  0  0  0  0  0  0  0  0
    8.7492    1.4725   -0.0110 C   0  0  0  0  0  0  0  0  0  0  0  0
    8.9440    1.2856    1.3017 C   0  0  0  0  0  0  0  0  0  0  0  0
    9.8938    1.9554    1.9819 F   0  0  0  0  0  0  0  0  0  0  0  0
    8.1180    0.3093    2.0684 C   0  0  0  0  0  0  0  0  0  0  0  0
    8.2933    0.0739    3.2577 O   0  0  0  0  0  0  0  0  0  0  0  0
    7.1358   -0.3243    1.3396 N   0  0  0  0  0  0  0  0  0  0  0  0
    6.9195   -0.1053   -0.0088 C   0  0  0  0  0  0  0  0  0  0  0  0
    5.8168   -0.8331   -0.6949 C   0  0  0  0  0  0  0  0  0  0  0  0
    6.0604   -1.6512   -1.5768 O   0  0  0  0  0  0  0  0  0  0  0  0
    4.4205   -0.6366   -0.2219 C   0  0  0  0  0  0  0  0  0  0  0  0
    3.4649   -1.6007   -0.5835 C   0  0  0  0  0  0  0  0  0  0  0  0
    2.1431   -1.4931   -0.1388 C   0  0  0  0  0  0  0  0  0  0  0  0
    1.7679   -0.4144    0.6697 C   0  0  0  0  0  0  0  0  0  0  0  0
    0.3884   -0.2957    1.2024 C   0  0  0  0  0  0  0  0  0  0  0  0
    0.2106    0.1496    2.3287 O   0  0  0  0  0  0  0  0  0  0  0  0
   -0.6172   -0.6912    0.3430 N   0  0  0  0  0  0  0  0  0  0  0  0
   -2.0308   -0.4962    0.6912 C   0  0  2  0  0  0  0  0  0  0  0  0
   -2.4327   -1.4020    1.8694 C   0  0  0  0  0  0  0  0  0  0  0  0
   -3.9501   -1.5533    1.9757 C   0  0  0  0  0  0  0  0  0  0  0  0
   -4.5877   -2.1027    0.7681 N   0  0  0  0  0  0  0  0  0  0  0  0
   -5.2875   -3.4009    0.8672 C   0  0  0  0  0  0  0  0  0  0  0  0
   -5.9670   -3.8967    2.1095 C   0  0  0  0  0  0  0  0  0  0  0  0
   -4.7062   -4.5623    1.6258 C   0  0  0  0  0  0  0  0  0  0  0  0
   -3.7073   -2.0644   -0.4179 C   0  0  0  0  0  0  0  0  0  0  0  0
   -2.9571   -0.7260   -0.5394 C   0  0  1  0  0  0  0  0  0  0  0  0
   -3.9185    0.3724   -0.6923 N   0  0  0  0  0  0  0  0  0  0  0  0
   -3.5406    1.5930   -1.2064 C   0  0  0  0  0  0  0  0  0  0  0  0
   -2.4124    1.8074   -1.6371 O   0  0  0  0  0  0  0  0  0  0  0  0
   -4.5663    2.6688   -1.2362 C   0  0  0  0  0  0  0  0  0  0  0  0
   -4.3573    3.7477   -2.1015 C   0  0  0  0  0  0  0  0  0  0  0  0
   -5.2993    4.7639   -2.1482 C   0  0  0  0  0  0  0  0  0  0  0  0
   -5.1071    5.8618   -2.9916 N   0  0  0  0  0  0  0  0  0  0  0  0
   -6.3950    4.7590   -1.3755 N   0  0  0  0  0  0  0  0  0  0  0  0
   -6.5669    3.7196   -0.5372 C   0  0  0  0  0  0  0  0  0  0  0  0
   -7.6595    3.7256    0.2418 F   0  0  0  0  0  0  0  0  0  0  0  0
   -5.6948    2.6564   -0.4251 C   0  0  0  0  0  0  0  0  0  0  0  0
    2.7080    0.5565    1.0236 C   0  0  0  0  0  0  0  0  0  0  0  0
    4.0185    0.4494    0.5631 C   0  0  0  0  0  0  0  0  0  0  0  0
    4.8741    1.4255    0.8948 F   0  0  0  0  0  0  0  0  0  0  0  0
    8.2034    0.5754   -3.9095 H   0  0  0  0  0  0  0  0  0  0  0  0
    8.3789   -0.7372   -2.7276 H   0  0  0  0  0  0  0  0  0  0  0  0
    9.4792    0.6808   -2.6834 H   0  0  0  0  0  0  0  0  0  0  0  0
    9.3487    2.1910   -0.5590 H   0  0  0  0  0  0  0  0  0  0  0  0
    6.5693   -0.9886    1.8530 H   0  0  0  0  0  0  0  0  0  0  0  0
    3.7514   -2.4525   -1.2010 H   0  0  0  0  0  0  0  0  0  0  0  0
    1.4285   -2.2698   -0.4009 H   0  0  0  0  0  0  0  0  0  0  0  0
   -0.3791   -0.6713   -0.6455 H   0  0  0  0  0  0  0  0  0  0  0  0
   -2.1137    0.5482    1.0213 H   0  0  0  0  0  0  0  0  0  0  0  0
   -2.0492   -0.9856    2.8103 H   0  0  0  0  0  0  0  0  0  0  0  0
   -1.9673   -2.3928    1.7677 H   0  0  0  0  0  0  0  0  0  0  0  0
   -4.1694   -2.1321    2.8774 H   0  0  0  0  0  0  0  0  0  0  0  0
   -4.3907   -0.5640    2.1586 H   0  0  0  0  0  0  0  0  0  0  0  0
   -5.8172   -3.6530   -0.0536 H   0  0  0  0  0  0  0  0  0  0  0  0
   -6.8994   -4.4391    1.9941 H   0  0  0  0  0  0  0  0  0  0  0  0
   -5.9280   -3.3180    3.0229 H   0  0  0  0  0  0  0  0  0  0  0  0
   -4.7904   -5.5477    1.1796 H   0  0  0  0  0  0  0  0  0  0  0  0
   -3.7971   -4.4203    2.1885 H   0  0  0  0  0  0  0  0  0  0  0  0
   -2.9850   -2.8920   -0.3918 H   0  0  0  0  0  0  0  0  0  0  0  0
   -4.3209   -2.2055   -1.3187 H   0  0  0  0  0  0  0  0  0  0  0  0
   -2.3633   -0.7428   -1.4645 H   0  0  0  0  0  0  0  0  0  0  0  0
   -4.8492    0.1952   -0.3367 H   0  0  0  0  0  0  0  0  0  0  0  0
   -3.4713    3.7867   -2.7297 H   0  0  0  0  0  0  0  0  0  0  0  0
   -4.2785    6.3760   -2.7046 H   0  0  0  0  0  0  0  0  0  0  0  0
   -4.9710    5.5533   -3.9498 H   0  0  0  0  0  0  0  0  0  0  0  0
   -5.9101    1.8834    0.2999 H   0  0  0  0  0  0  0  0  0  0  0  0
    2.4265    1.3967    1.6538 H   0  0  0  0  0  0  0  0  0  0  0  0
  1  2  1  0
  2  3  1  0
  3  4  1  0
  4  5  2  0
  5  6  1  0
  5  7  1  0
  7  8  2  0
  7  9  1  0
  9 10  1  0
 10 11  1  0
 11 12  2  0
 11 13  1  0
 13 14  2  0
 14 15  1  0
 15 16  2  0
 16 17  1  0
 17 18  2  0
 17 19  1  0
 19 20  1  0
 20 21  1  0
 21 22  1  0
 22 23  1  0
 23 24  1  0
 24 25  1  0
 25 26  1  0
 23 27  1  0
 27 28  1  0
 28 29  1  0
 29 30  1  0
 30 31  2  0
 30 32  1  0
 32 33  2  0
 33 34  1  0
 34 35  1  0
 34 36  2  0
 36 37  1  0
 37 38  1  0
 37 39  2  0
 16 40  1  0
 40 41  2  0
 41 42  1  0
 10  3  2  0
 41 13  1  0
 28 20  1  0
 39 32  1  0
 26 24  1  0
  1 43  1  0
  1 44  1  0
  1 45  1  0
  4 46  1  0
  9 47  1  0
 14 48  1  0
 15 49  1  0
 19 50  1  0
 20 51  1  1
 21 52  1  0
 21 53  1  0
 22 54  1  0
 22 55  1  0
 24 56  1  0
 25 57  1  0
 25 58  1  0
 26 59  1  0
 26 60  1  0
 27 61  1  0
 27 62  1  0
 28 63  1  6
 29 64  1  0
 33 65  1  0
 35 66  1  0
 35 67  1  0
 39 68  1  0
 40 69  1  0
M  END
$$$$
