
     RDKit          3D

 71 74  0  0  0  0  0  0  0  0999 V2000
    8.9320   -1.9488    0.9327 C   0  0  0  0  0  0  0  0  0  0  0  0
    7.9840   -1.2844    1.7698 O   0  0  0  0  0  0  0  0  0  0  0  0
    7.8770    0.0475    1.4403 C   0  0  0  0  0  0  0  0  0  0  0  0
    8.8545    0.9320    2.0440 C   0  0  0  0  0  0  0  0  0  0  0  0
    8.8096    2.2462    1.8039 C   0  0  0  0  0  0  0  0  0  0  0  0
    9.7053    3.1019    2.3320 F   0  0  0  0  0  0  0  0  0  0  0  0
    7.7411    2.8284    0.9413 C   0  0  0  0  0  0  0  0  0  0  0  0
    7.6720    4.0244    0.6810 O   0  0  0  0  0  0  0  0  0  0  0  0
    6.8244    1.9238    0.4501 N   0  0  0  0  0  0  0  0  0  0  0  0
    6.8800    0.5662    0.6979 C   0  0  0  0  0  0  0  0  0  0  0  0
    5.8544   -0.3277    0.0903 C   0  0  0  0  0  0  0  0  0  0  0  0
    6.1661   -1.1886   -0.7285 O   0  0  0  0  0  0  0  0  0  0  0  0
    4.4249   -0.0929    0.4069 C   0  0  0  0  0  0  0  0  0  0  0  0
    3.4681   -0.4720   -0.5464 C   0  0  0  0  0  0  0  0  0  0  0  0
    2.1063   -0.2521   -0.3099 C   0  0  0  0  0  0  0  0  0  0  0  0
    1.6869    0.3297    0.8947 C   0  0  0  0  0  0  0  0  0  0  0  0
    0.2541    0.6247    1.1822 C   0  0  0  0  0  0  0  0  0  0  0  0
   -0.0396    1.4438    2.0453 O   0  0  0  0  0  0  0  0  0  0  0  0
   -0.6825   -0.0588    0.4403 N   0  0  0  0  0  0  0  0  0  0  0  0
   -2.1214    0.1085    0.6588 C   0  0  2  0  0  0  0  0  0  0  0  0
   -2.6262   -0.8446    1.7443 C   0  0  0  0  0  0  0  0  0  0  0  0
   -2.5233   -2.3128    1.3148 C   0  0  0  0  0  0  0  0  0  0  0  0
   -2.6279   -2.5052   -0.1411 N   0  0  0  0  0  0  0  0  0  0  0  0
   -2.9095   -3.9115   -0.4977 C   0  0  0  0  0  0  0  0  0  0  0  0
   -2.3831   -4.2075   -1.9062 C   0  0  0  0  0  0  0  0  0  0  0  0
   -4.3814   -4.3289   -0.3830 C   0  0  0  0  0  0  0  0  0  0  0  0
   -3.5254   -1.5121   -0.7516 C   0  0  0  0  0  0  0  0  0  0  0  0
   -2.9061   -0.0882   -0.6722 C   0  0  1  0  0  0  0  0  0  0  0  0
   -3.9180    0.9680   -0.8492 N   0  0  0  0  0  0  0  0  0  0  0  0
   -4.5766    1.1182   -2.0560 C   0  0  0  0  0  0  0  0  0  0  0  0
   -4.4883    0.3250   -2.9854 O   0  0  0  0  0  0  0  0  0  0  0  0
   -5.3842    2.3529   -2.2178 C   0  0  0  0  0  0  0  0  0  0  0  0
   -5.9556    3.0116   -1.1294 C   0  0  0  0  0  0  0  0  0  0  0  0
   -6.6766    4.1705   -1.3689 C   0  0  0  0  0  0  0  0  0  0  0  0
   -7.2279    4.8845   -0.3094 N   0  0  0  0  0  0  0  0  0  0  0  0
   -6.8468    4.6868   -2.5943 N   0  0  0  0  0  0  0  0  0  0  0  0
   -6.3019    4.0159   -3.6294 C   0  0  0  0  0  0  0  0  0  0  0  0
   -6.4811    4.5273   -4.8568 F   0  0  0  0  0  0  0  0  0  0  0  0
   -5.5733    2.8541   -3.5016 C   0  0  0  0  0  0  0  0  0  0  0  0
    2.6428    0.6960    1.8505 C   0  0  0  0  0  0  0  0  0  0  0  0
    3.9980    0.4795    1.6058 C   0  0  0  0  0  0  0  0  0  0  0  0
    4.8737    0.8296    2.5578 F   0  0  0  0  0  0  0  0  0  0  0  0
    9.9513   -1.6492    1.1953 H   0  0  0  0  0  0  0  0  0  0  0  0
    8.7446   -1.7587   -0.1288 H   0  0  0  0  0  0  0  0  0  0  0  0
    8.8390   -3.0256    1.1087 H   0  0  0  0  0  0  0  0  0  0  0  0
    9.6177    0.5155    2.6896 H   0  0  0  0  0  0  0  0  0  0  0  0
    6.1000    2.3099   -0.1434 H   0  0  0  0  0  0  0  0  0  0  0  0
    3.7814   -0.9235   -1.4874 H   0  0  0  0  0  0  0  0  0  0  0  0
    1.3981   -0.5140   -1.0925 H   0  0  0  0  0  0  0  0  0  0  0  0
   -0.4148   -0.9057   -0.0482 H   0  0  0  0  0  0  0  0  0  0  0  0
   -2.2633    1.1345    1.0206 H   0  0  0  0  0  0  0  0  0  0  0  0
   -2.0736   -0.7003    2.6798 H   0  0  0  0  0  0  0  0  0  0  0  0
   -3.6762   -0.6068    1.9581 H   0  0  0  0  0  0  0  0  0  0  0  0
   -1.5516   -2.7095    1.6383 H   0  0  0  0  0  0  0  0  0  0  0  0
   -3.2917   -2.8774    1.8589 H   0  0  0  0  0  0  0  0  0  0  0  0
   -2.3302   -4.5569    0.1774 H   0  0  0  0  0  0  0  0  0  0  0  0
   -2.4396   -5.2815   -2.1137 H   0  0  0  0  0  0  0  0  0  0  0  0
   -1.3320   -3.9112   -2.0025 H   0  0  0  0  0  0  0  0  0  0  0  0
   -2.9571   -3.6914   -2.6826 H   0  0  0  0  0  0  0  0  0  0  0  0
   -4.7688   -4.1571    0.6260 H   0  0  0  0  0  0  0  0  0  0  0  0
   -4.4937   -5.4000   -0.5995 H   0  0  0  0  0  0  0  0  0  0  0  0
   -5.0187   -3.7862   -1.0906 H   0  0  0  0  0  0  0  0  0  0  0  0
   -4.5106   -1.5255   -0.2662 H   0  0  0  0  0  0  0  0  0  0  0  0
   -3.6967   -1.7477   -1.8069 H   0  0  0  0  0  0  0  0  0  0  0  0
   -2.2078    0.0289   -1.5132 H   0  0  0  0  0  0  0  0  0  0  0  0
   -3.7718    1.8177   -0.3148 H   0  0  0  0  0  0  0  0  0  0  0  0
   -5.8501    2.6413   -0.1163 H   0  0  0  0  0  0  0  0  0  0  0  0
   -7.8387    4.3139    0.2671 H   0  0  0  0  0  0  0  0  0  0  0  0
   -7.7261    5.6793   -0.7084 H   0  0  0  0  0  0  0  0  0  0  0  0
   -5.1586    2.3692   -4.3772 H   0  0  0  0  0  0  0  0  0  0  0  0
    2.3411    1.1572    2.7884 H   0  0  0  0  0  0  0  0  0  0  0  0
  1  2  1  0
  2  3  1  0
  3  4  1  0
  4  5  2  0
  5  6  1  0
  5  7  1  0
  7  8  2  0
  7  9  1  0
  9 10  1  0
 10 11  1  0
 11 12  2  0
 11 13  1  0
 13 14  2  0
 14 15  1  0
 15 16  2  0
 16 17  1  0
 17 18  2  0
 17 19  1  0
 19 20  1  0
 20 21  1  0
 21 22  1  0
 22 23  1  0
 23 24  1  0
 24 25  1  0
 24 26  1  0
 23 27  1  0
 27 28  1  0
 28 29  1  0
 29 30  1  0
 30 31  2  0
 30 32  1  0
 32 33  2  0
 33 34  1  0
 34 35  1  0
 34 36  2  0
 36 37  1  0
 37 38  1  0
 37 39  2  0
 16 40  1  0
 40 41  2  0
 41 42  1  0
 10  3  2  0
 41 13  1  0
 28 20  1  0
 39 32  1  0
  1 43  1  0
  1 44  1  0
  1 45  1  0
  4 46  1  0
  9 47  1  0
 14 48  1  0
 15 49  1  0
 19 50  1  0
 20 51  1  1
 21 52  1  0
 21 53  1  0
 22 54  1  0
 22 55  1  0
 24 56  1  0
 25 57  1  0
 25 58  1  0
 25 59  1  0
 26 60  1  0
 26 61  1  0
 26 62  1  0
 27 63  1  0
 27 64  1  0
 28 65  1  6
 29 66  1  0
 33 67  1  0
 35 68  1  0
 35 69  1  0
 39 70  1  0
 40 71  1  0
M  END
$$$$
