
     RDKit          3D

 84 89  0  0  0  0  0  0  0  0999 V2000
   -8.8565    3.7181    1.4747 C   0  0  0  0  0  0  0  0  0  0  0  0
   -8.6664    2.3791    1.0165 O   0  0  0  0  0  0  0  0  0  0  0  0
   -8.4143    2.3440   -0.3347 C   0  0  0  0  0  0  0  0  0  0  0  0
   -9.5819    2.2904   -1.1895 C   0  0  0  0  0  0  0  0  0  0  0  0
   -9.4397    2.1846   -2.5151 C   0  0  0  0  0  0  0  0  0  0  0  0
  -10.4990    2.1335   -3.3441 F   0  0  0  0  0  0  0  0  0  0  0  0
   -8.0868    2.1070   -3.1335 C   0  0  0  0  0  0  0  0  0  0  0  0
   -7.9106    2.0331   -4.3433 O   0  0  0  0  0  0  0  0  0  0  0  0
   -7.0330    2.1206   -2.2455 N   0  0  0  0  0  0  0  0  0  0  0  0
   -7.1871    2.2188   -0.8765 C   0  0  0  0  0  0  0  0  0  0  0  0
   -5.9777    2.2196   -0.0086 C   0  0  0  0  0  0  0  0  0  0  0  0
   -5.6864    3.1972    0.6760 O   0  0  0  0  0  0  0  0  0  0  0  0
   -5.0670    1.0485   -0.0439 C   0  0  0  0  0  0  0  0  0  0  0  0
   -3.7283    1.2425    0.3311 C   0  0  0  0  0  0  0  0  0  0  0  0
   -2.8241    0.1745    0.3162 C   0  0  0  0  0  0  0  0  0  0  0  0
   -3.2567   -1.1037   -0.0589 C   0  0  0  0  0  0  0  0  0  0  0  0
   -2.3362   -2.2727   -0.1097 C   0  0  0  0  0  0  0  0  0  0  0  0
   -2.5994   -3.2236   -0.8356 O   0  0  0  0  0  0  0  0  0  0  0  0
   -1.2193   -2.2176    0.6984 N   0  0  0  0  0  0  0  0  0  0  0  0
   -0.3238   -3.3751    0.8381 C   0  0  2  0  0  0  0  0  0  0  0  0
   -0.8558   -4.3593    1.8871 C   0  0  0  0  0  0  0  0  0  0  0  0
    0.2526   -5.1304    2.6143 C   0  0  0  0  0  0  0  0  0  0  0  0
    1.3758   -5.3973    1.7261 N   0  0  0  0  0  0  0  0  0  0  0  0
    2.3508   -6.4252    2.1302 C   0  0  0  0  0  0  0  0  0  0  0  0
    3.1996   -6.2475    3.3622 C   0  0  0  0  0  0  0  0  0  0  0  0
    2.1796   -7.3452    3.3084 C   0  0  0  0  0  0  0  0  0  0  0  0
    2.0324   -4.1688    1.2374 C   0  0  0  0  0  0  0  0  0  0  0  0
    1.1089   -2.9288    1.1787 C   0  0  1  0  0  0  0  0  0  0  0  0
    1.5798   -1.9280    0.2168 N   0  0  0  0  0  0  0  0  0  0  0  0
    2.7070   -1.1734    0.4502 C   0  0  0  0  0  0  0  0  0  0  0  0
    3.3933   -1.2938    1.4580 O   0  0  0  0  0  0  0  0  0  0  0  0
    3.0560   -0.1532   -0.5716 C   0  0  0  0  0  0  0  0  0  0  0  0
    2.6340   -0.2444   -1.8894 C   0  0  0  0  0  0  0  0  0  0  0  0
    3.0149    0.7688   -2.7394 C   0  0  0  0  0  0  0  0  0  0  0  0
    2.6072    0.7109   -4.0155 F   0  0  0  0  0  0  0  0  0  0  0  0
    3.7713    1.8242   -2.3804 N   0  0  0  0  0  0  0  0  0  0  0  0
    4.2152    1.8975   -1.1100 C   0  0  0  0  0  0  0  0  0  0  0  0
    5.0227    2.9770   -0.7084 N   0  0  0  0  0  0  0  0  0  0  0  0
    5.1700    4.0570   -1.7111 C   0  0  0  0  0  0  0  0  0  0  0  0
    6.4829    3.9089   -2.5104 C   0  0  0  0  0  0  0  0  0  0  0  0
    7.7120    3.9243   -1.6791 N   0  0  0  0  0  0  0  0  0  0  0  0
    8.4159    5.1987   -1.7777 C   0  0  0  0  0  0  0  0  0  0  0  0
    7.4122    3.6037   -0.2659 C   0  0  0  0  0  0  0  0  0  0  0  0
    6.3070    2.5341   -0.1051 C   0  0  0  0  0  0  0  0  0  0  0  0
    3.8599    0.9215   -0.1817 C   0  0  0  0  0  0  0  0  0  0  0  0
   -4.5921   -1.2980   -0.4315 C   0  0  0  0  0  0  0  0  0  0  0  0
   -5.4868   -0.2299   -0.4140 C   0  0  0  0  0  0  0  0  0  0  0  0
   -6.7610   -0.4752   -0.7480 F   0  0  0  0  0  0  0  0  0  0  0  0
   -9.7296    4.1775    1.0020 H   0  0  0  0  0  0  0  0  0  0  0  0
   -9.0335    3.6821    2.5536 H   0  0  0  0  0  0  0  0  0  0  0  0
   -7.9678    4.3291    1.2951 H   0  0  0  0  0  0  0  0  0  0  0  0
  -10.5678    2.3268   -0.7424 H   0  0  0  0  0  0  0  0  0  0  0  0
   -6.1107    2.0726   -2.6588 H   0  0  0  0  0  0  0  0  0  0  0  0
   -3.3801    2.2319    0.6279 H   0  0  0  0  0  0  0  0  0  0  0  0
   -1.7867    0.3694    0.5759 H   0  0  0  0  0  0  0  0  0  0  0  0
   -1.2001   -1.5410    1.4491 H   0  0  0  0  0  0  0  0  0  0  0  0
   -0.3022   -3.8832   -0.1364 H   0  0  0  0  0  0  0  0  0  0  0  0
   -1.4604   -3.8364    2.6395 H   0  0  0  0  0  0  0  0  0  0  0  0
   -1.5340   -5.0650    1.3898 H   0  0  0  0  0  0  0  0  0  0  0  0
    0.5837   -4.5736    3.4996 H   0  0  0  0  0  0  0  0  0  0  0  0
   -0.1994   -6.0613    2.9735 H   0  0  0  0  0  0  0  0  0  0  0  0
    2.8580   -6.8693    1.2730 H   0  0  0  0  0  0  0  0  0  0  0  0
    3.0069   -5.4058    4.0172 H   0  0  0  0  0  0  0  0  0  0  0  0
    4.2465   -6.5194    3.2918 H   0  0  0  0  0  0  0  0  0  0  0  0
    1.3252   -7.2589    3.9659 H   0  0  0  0  0  0  0  0  0  0  0  0
    2.5352   -8.3646    3.1991 H   0  0  0  0  0  0  0  0  0  0  0  0
    2.4320   -4.3789    0.2368 H   0  0  0  0  0  0  0  0  0  0  0  0
    2.8945   -3.9138    1.8663 H   0  0  0  0  0  0  0  0  0  0  0  0
    1.1049   -2.4405    2.1630 H   0  0  0  0  0  0  0  0  0  0  0  0
    0.9420   -1.6902   -0.5309 H   0  0  0  0  0  0  0  0  0  0  0  0
    2.0483   -1.0666   -2.2761 H   0  0  0  0  0  0  0  0  0  0  0  0
    4.3120    4.1351   -2.3890 H   0  0  0  0  0  0  0  0  0  0  0  0
    5.1882    5.0129   -1.1713 H   0  0  0  0  0  0  0  0  0  0  0  0
    6.5222    4.6776   -3.2918 H   0  0  0  0  0  0  0  0  0  0  0  0
    6.4647    2.9469   -3.0373 H   0  0  0  0  0  0  0  0  0  0  0  0
    7.7980    6.0389   -1.4417 H   0  0  0  0  0  0  0  0  0  0  0  0
    8.7228    5.3886   -2.8120 H   0  0  0  0  0  0  0  0  0  0  0  0
    9.3323    5.1821   -1.1773 H   0  0  0  0  0  0  0  0  0  0  0  0
    7.0964    4.5050    0.2768 H   0  0  0  0  0  0  0  0  0  0  0  0
    8.3288    3.2428    0.2151 H   0  0  0  0  0  0  0  0  0  0  0  0
    6.6600    1.6030   -0.5692 H   0  0  0  0  0  0  0  0  0  0  0  0
    6.1558    2.3425    0.9633 H   0  0  0  0  0  0  0  0  0  0  0  0
    4.1901    1.0031    0.8501 H   0  0  0  0  0  0  0  0  0  0  0  0
   -4.9475   -2.2812   -0.7322 H   0  0  0  0  0  0  0  0  0  0  0  0
  1  2  1  0
  2  3  1  0
  3  4  1  0
  4  5  2  0
  5  6  1  0
  5  7  1  0
  7  8  2  0
  7  9  1  0
  9 10  1  0
 10 11  1  0
 11 12  2  0
 11 13  1  0
 13 14  2  0
 14 15  1  0
 15 16  2  0
 16 17  1  0
 17 18  2  0
 17 19  1  0
 19 20  1  0
 20 21  1  0
 21 22  1  0
 22 23  1  0
 23 24  1  0
 24 25  1  0
 25 26  1  0
 23 27  1  0
 27 28  1  0
 28 29  1  0
 29 30  1  0
 30 31  2  0
 30 32  1  0
 32 33  2  0
 33 34  1  0
 34 35  1  0
 34 36  2  0
 36 37  1  0
 37 38  1  0
 38 39  1  0
 39 40  1  0
 40 41  1  0
 41 42  1  0
 41 43  1  0
 43 44  1  0
 37 45  2  0
 16 46  1  0
 46 47  2  0
 47 48  1  0
 10  3  2  0
 47 13  1  0
 28 20  1  0
 45 32  1  0
 26 24  1  0
 44 38  1  0
  1 49  1  0
  1 50  1  0
  1 51  1  0
  4 52  1  0
  9 53  1  0
 14 54  1  0
 15 55  1  0
 19 56  1  0
 20 57  1  6
 21 58  1  0
 21 59  1  0
 22 60  1  0
 22 61  1  0
 24 62  1  0
 25 63  1  0
 25 64  1  0
 26 65  1  0
 26 66  1  0
 27 67  1  0
 27 68  1  0
 28 69  1  1
 29 70  1  0
 33 71  1  0
 39 72  1  0
 39 73  1  0
 40 74  1  0
 40 75  1  0
 42 76  1  0
 42 77  1  0
 42 78  1  0
 43 79  1  0
 43 80  1  0
 44 81  1  0
 44 82  1  0
 45 83  1  0
 46 84  1  0
M  END
$$$$
