
     RDKit          3D

 45 48  0  0  0  0  0  0  0  0999 V2000
    6.2682   -0.3502    0.3534 C   0  0  0  0  0  0  0  0  0  0  0  0
    5.2616    0.7032    0.2311 N   0  0  0  0  0  0  0  0  0  0  0  0
    5.6928    1.9047   -0.4822 C   0  0  0  0  0  0  0  0  0  0  0  0
    3.9074    0.3462    0.1976 C   0  0  0  0  0  0  0  0  0  0  0  0
    2.9041    1.2556   -0.1865 C   0  0  0  0  0  0  0  0  0  0  0  0
    1.5450    0.9106   -0.2059 C   0  0  0  0  0  0  0  0  0  0  0  0
    1.1501   -0.3678    0.1667 C   0  0  0  0  0  0  0  0  0  0  0  0
   -0.3343   -0.7241    0.1512 C   0  0  0  0  0  0  0  0  0  0  0  0
   -1.0174   -1.9208   -0.1737 C   0  0  0  0  0  0  0  0  0  0  0  0
   -0.7001   -3.1555   -0.5745 C   0  0  0  0  0  0  0  0  0  0  0  0
   -1.5469   -4.1940   -0.8547 N   0  0  0  0  0  0  0  0  0  0  0  0
   -2.8136   -4.1376   -0.6058 C   0  0  0  0  0  0  0  0  0  0  0  0
   -3.7121   -3.1165    0.0021 C   0  0  0  0  0  0  0  0  0  0  0  0
   -3.3784   -1.8490    0.2942 C   0  0  0  0  0  0  0  0  0  0  0  0
   -4.3326   -1.0211    0.8645 O   0  0  0  0  0  0  0  0  0  0  0  0
   -2.1333   -1.3052    0.0969 N   0  0  0  0  0  0  0  0  0  0  0  0
   -1.5438   -0.1527    0.3365 C   0  0  0  0  0  0  0  0  0  0  0  0
   -1.9910    1.0340    0.6806 N   0  0  0  0  0  0  0  0  0  0  0  0
   -3.0552    1.7783    0.1130 C   0  0  0  0  0  0  0  0  0  0  0  0
   -3.5180    2.9131    0.7851 C   0  0  0  0  0  0  0  0  0  0  0  0
   -4.5836    3.6228    0.2526 C   0  0  0  0  0  0  0  0  0  0  0  0
   -5.2184    3.2835   -0.8876 N   0  0  0  0  0  0  0  0  0  0  0  0
   -4.7706    2.1746   -1.5126 C   0  0  0  0  0  0  0  0  0  0  0  0
   -3.7158    1.3999   -1.0560 C   0  0  0  0  0  0  0  0  0  0  0  0
    2.1037   -1.2895    0.5747 C   0  0  0  0  0  0  0  0  0  0  0  0
    3.4594   -0.9289    0.5917 C   0  0  0  0  0  0  0  0  0  0  0  0
    6.2070   -1.0533   -0.4846 H   0  0  0  0  0  0  0  0  0  0  0  0
    7.2814    0.0676    0.3608 H   0  0  0  0  0  0  0  0  0  0  0  0
    6.1622   -0.8924    1.2991 H   0  0  0  0  0  0  0  0  0  0  0  0
    5.4610    1.8335   -1.5506 H   0  0  0  0  0  0  0  0  0  0  0  0
    6.7742    2.0560   -0.3884 H   0  0  0  0  0  0  0  0  0  0  0  0
    5.2282    2.8033   -0.0625 H   0  0  0  0  0  0  0  0  0  0  0  0
    3.1531    2.2696   -0.4836 H   0  0  0  0  0  0  0  0  0  0  0  0
    0.8152    1.6491   -0.5265 H   0  0  0  0  0  0  0  0  0  0  0  0
    0.3490   -3.3836   -0.7381 H   0  0  0  0  0  0  0  0  0  0  0  0
   -3.3683   -5.0508   -0.8894 H   0  0  0  0  0  0  0  0  0  0  0  0
   -4.7132   -3.4853    0.1912 H   0  0  0  0  0  0  0  0  0  0  0  0
   -5.1659   -1.5017    0.9738 H   0  0  0  0  0  0  0  0  0  0  0  0
   -1.3376    1.6650    1.1372 H   0  0  0  0  0  0  0  0  0  0  0  0
   -3.0697    3.2363    1.7175 H   0  0  0  0  0  0  0  0  0  0  0  0
   -4.9678    4.5083    0.7502 H   0  0  0  0  0  0  0  0  0  0  0  0
   -5.2989    1.9110   -2.4241 H   0  0  0  0  0  0  0  0  0  0  0  0
   -3.4162    0.5225   -1.6165 H   0  0  0  0  0  0  0  0  0  0  0  0
    1.8200   -2.2835    0.9075 H   0  0  0  0  0  0  0  0  0  0  0  0
    4.1589   -1.6853    0.9344 H   0  0  0  0  0  0  0  0  0  0  0  0
  1  2  1  0
  2  3  1  0
  2  4  1  0
  4  5  2  0
  5  6  1  0
  6  7  2  0
  7  8  1  0
  8  9  1  0
  9 10  2  0
 10 11  1  0
 11 12  2  0
 12 13  1  0
 13 14  2  0
 14 15  1  0
 14 16  1  0
 16 17  1  0
 17 18  1  0
 18 19  1  0
 19 20  2  0
 20 21  1  0
 21 22  2  0
 22 23  1  0
 23 24  2  0
  7 25  1  0
 25 26  2  0
 26  4  1  0
 17  8  2  0
 24 19  1  0
 16  9  1  0
  1 27  1  0
  1 28  1  0
  1 29  1  0
  3 30  1  0
  3 31  1  0
  3 32  1  0
  5 33  1  0
  6 34  1  0
 10 35  1  0
 12 36  1  0
 13 37  1  0
 15 38  1  0
 18 39  1  0
 20 40  1  0
 21 41  1  0
 23 42  1  0
 24 43  1  0
 25 44  1  0
 26 45  1  0
M  END
$$$$
