
     RDKit          3D

 46 48  0  0  0  0  0  0  0  0999 V2000
    2.9598   -3.0091    1.8811 O   0  0  0  0  0  0  0  0  0  0  0  0
    4.0728   -2.1819    1.5570 C   0  0  0  0  0  0  0  0  0  0  0  0
    3.7014   -0.6940    1.5237 C   0  0  0  0  0  0  0  0  0  0  0  0
    3.1258   -0.2992    0.2374 N   0  0  0  0  0  0  0  0  0  0  0  0
    1.8196   -0.5950   -0.1003 C   0  0  0  0  0  0  0  0  0  0  0  0
    1.1309   -1.5288    0.4942 N   0  0  0  0  0  0  0  0  0  0  0  0
   -0.1955   -1.6585    0.1357 C   0  0  0  0  0  0  0  0  0  0  0  0
   -1.1578   -0.7099    0.2881 C   0  0  0  0  0  0  0  0  0  0  0  0
   -2.4898   -0.8724   -0.0799 N   0  0  0  0  0  0  0  0  0  0  0  0
   -3.0196   -1.8496   -0.9502 C   0  0  0  0  0  0  0  0  0  0  0  0
   -3.0425   -3.1991   -0.5669 C   0  0  0  0  0  0  0  0  0  0  0  0
   -3.5404   -4.1821   -1.4257 C   0  0  0  0  0  0  0  0  0  0  0  0
   -4.0160   -3.8323   -2.6863 C   0  0  0  0  0  0  0  0  0  0  0  0
   -3.9936   -2.4975   -3.0912 C   0  0  0  0  0  0  0  0  0  0  0  0
   -3.4990   -1.5145   -2.2292 C   0  0  0  0  0  0  0  0  0  0  0  0
   -3.4921    0.1279   -2.7771 Cl  0  0  0  0  0  0  0  0  0  0  0  0
   -0.8074    0.4882    0.8775 N   0  0  0  0  0  0  0  0  0  0  0  0
   -0.0930    1.3571    0.2179 C   0  0  0  0  0  0  0  0  0  0  0  0
    0.2614    2.5451    0.8079 N   0  0  0  0  0  0  0  0  0  0  0  0
   -0.1649    2.9117    2.1494 C   0  0  0  0  0  0  0  0  0  0  0  0
    0.5144    4.2550    2.3865 C   0  0  0  0  0  0  0  0  0  0  0  0
    0.5037    4.8805    1.0022 C   0  0  0  0  0  0  0  0  0  0  0  0
    0.7653    3.6954    0.0758 C   0  0  0  0  0  0  0  0  0  0  0  0
    0.3151    1.1378   -1.0733 N   0  0  0  0  0  0  0  0  0  0  0  0
    1.2141    0.2218   -1.2375 C   0  0  0  0  0  0  0  0  0  0  0  0
    2.1898   -2.6445    1.3886 H   0  0  0  0  0  0  0  0  0  0  0  0
    4.8264   -2.3522    2.3322 H   0  0  0  0  0  0  0  0  0  0  0  0
    4.4880   -2.5133    0.5995 H   0  0  0  0  0  0  0  0  0  0  0  0
    3.0122   -0.4386    2.3380 H   0  0  0  0  0  0  0  0  0  0  0  0
    4.6170   -0.1090    1.6629 H   0  0  0  0  0  0  0  0  0  0  0  0
    3.4236    0.6278   -0.0540 H   0  0  0  0  0  0  0  0  0  0  0  0
   -0.4424   -2.6279   -0.2822 H   0  0  0  0  0  0  0  0  0  0  0  0
   -2.8736    0.0549   -0.2549 H   0  0  0  0  0  0  0  0  0  0  0  0
   -2.6879   -3.4845    0.4219 H   0  0  0  0  0  0  0  0  0  0  0  0
   -3.5569   -5.2206   -1.1056 H   0  0  0  0  0  0  0  0  0  0  0  0
   -4.4034   -4.5978   -3.3540 H   0  0  0  0  0  0  0  0  0  0  0  0
   -4.3630   -2.2286   -4.0774 H   0  0  0  0  0  0  0  0  0  0  0  0
    0.1451    2.1776    2.9011 H   0  0  0  0  0  0  0  0  0  0  0  0
   -1.2553    3.0208    2.1830 H   0  0  0  0  0  0  0  0  0  0  0  0
    1.5478    4.1043    2.7220 H   0  0  0  0  0  0  0  0  0  0  0  0
   -0.0062    4.8630    3.1315 H   0  0  0  0  0  0  0  0  0  0  0  0
    1.2467    5.6740    0.8859 H   0  0  0  0  0  0  0  0  0  0  0  0
   -0.4854    5.3056    0.7933 H   0  0  0  0  0  0  0  0  0  0  0  0
    1.8388    3.5746   -0.1063 H   0  0  0  0  0  0  0  0  0  0  0  0
    0.2574    3.8400   -0.8835 H   0  0  0  0  0  0  0  0  0  0  0  0
    1.6086   -0.0223   -2.2361 H   0  0  0  0  0  0  0  0  0  0  0  0
  1  2  1  0
  2  3  1  0
  3  4  1  0
  4  5  1  0
  5  6  2  3
  6  7  1  0
  7  8  2  3
  8  9  1  0
  9 10  1  0
 10 11  2  0
 11 12  1  0
 12 13  2  0
 13 14  1  0
 14 15  2  0
 15 16  1  0
  8 17  1  0
 17 18  2  3
 18 19  1  0
 19 20  1  0
 20 21  1  0
 21 22  1  0
 22 23  1  0
 18 24  1  0
 24 25  2  3
 25  5  1  0
 15 10  1  0
 23 19  1  0
  1 26  1  0
  2 27  1  0
  2 28  1  0
  3 29  1  0
  3 30  1  0
  4 31  1  0
  7 32  1  0
  9 33  1  0
 11 34  1  0
 12 35  1  0
 13 36  1  0
 14 37  1  0
 20 38  1  0
 20 39  1  0
 21 40  1  0
 21 41  1  0
 22 42  1  0
 22 43  1  0
 23 44  1  0
 23 45  1  0
 25 46  1  0
M  END
$$$$
