
     RDKit          3D

 47 50  0  0  0  0  0  0  0  0999 V2000
   -3.5639   -2.8857   -0.8076 O   0  0  0  0  0  0  0  0  0  0  0  0
   -3.1895   -1.7563   -0.4747 C   0  0  0  0  0  0  0  0  0  0  0  0
   -3.0793   -1.3808    0.9923 C   0  0  0  0  0  0  0  0  0  0  0  0
   -3.7980   -0.1251    1.4285 C   0  0  0  0  0  0  0  0  0  0  0  0
   -5.1260   -0.2188    1.8800 C   0  0  0  0  0  0  0  0  0  0  0  0
   -5.8090    0.9110    2.3227 C   0  0  0  0  0  0  0  0  0  0  0  0
   -5.1751    2.1472    2.3199 C   0  0  0  0  0  0  0  0  0  0  0  0
   -3.8584    2.2567    1.8674 C   0  0  0  0  0  0  0  0  0  0  0  0
   -3.1536    1.1329    1.4110 C   0  0  0  0  0  0  0  0  0  0  0  0
   -1.7911    1.2859    0.8703 C   0  0  0  0  0  0  0  0  0  0  0  0
   -0.7370    1.7011    1.7070 C   0  0  0  0  0  0  0  0  0  0  0  0
    0.5697    1.8109    1.2218 C   0  0  0  0  0  0  0  0  0  0  0  0
    0.8378    1.5120   -0.1167 C   0  0  0  0  0  0  0  0  0  0  0  0
    2.2024    1.6348   -0.6808 C   0  0  0  0  0  0  0  0  0  0  0  0
    2.3542    2.0776   -1.8113 O   0  0  0  0  0  0  0  0  0  0  0  0
    3.2254    1.1857    0.1255 N   0  0  0  0  0  0  0  0  0  0  0  0
    4.5714    1.0430   -0.3904 C   0  0  0  0  0  0  0  0  0  0  0  0
    4.7982   -0.3542   -0.9143 C   0  0  0  0  0  0  0  0  0  0  0  0
    5.3634   -1.3465   -0.1004 C   0  0  0  0  0  0  0  0  0  0  0  0
    5.5322   -2.6452   -0.5854 C   0  0  0  0  0  0  0  0  0  0  0  0
    5.1304   -2.9674   -1.8821 C   0  0  0  0  0  0  0  0  0  0  0  0
    4.5641   -1.9889   -2.6985 C   0  0  0  0  0  0  0  0  0  0  0  0
    4.3994   -0.6905   -2.2182 C   0  0  0  0  0  0  0  0  0  0  0  0
   -0.1971    1.1079   -0.9665 C   0  0  0  0  0  0  0  0  0  0  0  0
   -1.5133    0.9888   -0.4850 C   0  0  0  0  0  0  0  0  0  0  0  0
   -2.5998    0.5238   -1.4229 C   0  0  0  0  0  0  0  0  0  0  0  0
   -2.7479   -0.9175   -1.4557 N   0  0  0  0  0  0  0  0  0  0  0  0
   -3.4744   -2.2250    1.5727 H   0  0  0  0  0  0  0  0  0  0  0  0
   -2.0153   -1.3451    1.2567 H   0  0  0  0  0  0  0  0  0  0  0  0
   -5.6358   -1.1789    1.8949 H   0  0  0  0  0  0  0  0  0  0  0  0
   -6.8364    0.8249    2.6750 H   0  0  0  0  0  0  0  0  0  0  0  0
   -5.7065    3.0270    2.6602 H   0  0  0  0  0  0  0  0  0  0  0  0
   -3.3897    3.2386    1.8537 H   0  0  0  0  0  0  0  0  0  0  0  0
   -0.9317    1.9322    2.7550 H   0  0  0  0  0  0  0  0  0  0  0  0
    1.3577    2.1522    1.8888 H   0  0  0  0  0  0  0  0  0  0  0  0
    2.9904    0.6346    0.9399 H   0  0  0  0  0  0  0  0  0  0  0  0
    5.2632    1.2600    0.4327 H   0  0  0  0  0  0  0  0  0  0  0  0
    4.7624    1.7794   -1.1786 H   0  0  0  0  0  0  0  0  0  0  0  0
    5.6738   -1.1129    0.9172 H   0  0  0  0  0  0  0  0  0  0  0  0
    5.9741   -3.4095    0.0504 H   0  0  0  0  0  0  0  0  0  0  0  0
    5.2532   -3.9787   -2.2544 H   0  0  0  0  0  0  0  0  0  0  0  0
    4.2474   -2.2362   -3.7074 H   0  0  0  0  0  0  0  0  0  0  0  0
    3.9486    0.0645   -2.8592 H   0  0  0  0  0  0  0  0  0  0  0  0
    0.0286    0.8779   -2.0084 H   0  0  0  0  0  0  0  0  0  0  0  0
   -2.3480    0.8330   -2.4459 H   0  0  0  0  0  0  0  0  0  0  0  0
   -3.5631    0.9938   -1.2152 H   0  0  0  0  0  0  0  0  0  0  0  0
   -2.8079   -1.3515   -2.3640 H   0  0  0  0  0  0  0  0  0  0  0  0
  1  2  2  0
  2  3  1  0
  3  4  1  0
  4  5  2  0
  5  6  1  0
  6  7  2  0
  7  8  1  0
  8  9  2  0
  9 10  1  0
 10 11  2  0
 11 12  1  0
 12 13  2  0
 13 14  1  0
 14 15  2  0
 14 16  1  0
 16 17  1  0
 17 18  1  0
 18 19  2  0
 19 20  1  0
 20 21  2  0
 21 22  1  0
 22 23  2  0
 13 24  1  0
 24 25  2  0
 25 26  1  0
 26 27  1  0
 27  2  1  0
  9  4  1  0
 25 10  1  0
 23 18  1  0
  3 28  1  0
  3 29  1  0
  5 30  1  0
  6 31  1  0
  7 32  1  0
  8 33  1  0
 11 34  1  0
 12 35  1  0
 16 36  1  0
 17 37  1  0
 17 38  1  0
 19 39  1  0
 20 40  1  0
 21 41  1  0
 22 42  1  0
 23 43  1  0
 24 44  1  0
 26 45  1  0
 26 46  1  0
 27 47  1  0
M  END
$$$$
