
     RDKit          3D

 37 40  0  0  0  0  0  0  0  0999 V2000
   -1.7065   -3.4744   -0.3743 O   0  0  0  0  0  0  0  0  0  0  0  0
   -0.9820   -2.3769   -0.9811 S   0  0  0  0  0  0  0  0  0  0  0  0
   -0.8583   -2.3145   -2.4265 O   0  0  0  0  0  0  0  0  0  0  0  0
    0.5840   -2.3239   -0.2975 N   0  0  0  0  0  0  0  0  0  0  0  0
    1.5275   -1.4552   -0.9681 C   0  0  0  0  0  0  0  0  0  0  0  0
    2.1185   -1.9051   -2.1539 C   0  0  0  0  0  0  0  0  0  0  0  0
    3.0005   -1.0849   -2.8485 C   0  0  0  0  0  0  0  0  0  0  0  0
    3.2890    0.1859   -2.3579 C   0  0  0  0  0  0  0  0  0  0  0  0
    2.6974    0.6416   -1.1668 C   0  0  0  0  0  0  0  0  0  0  0  0
    2.9739    1.9177   -0.6576 C   0  0  0  0  0  0  0  0  0  0  0  0
    2.3745    2.3386    0.5227 C   0  0  0  0  0  0  0  0  0  0  0  0
    1.5170    1.4647    1.1596 C   0  0  0  0  0  0  0  0  0  0  0  0
    1.2279    0.2284    0.7004 N   0  0  0  0  0  0  0  0  0  0  0  0
    1.8028   -0.1831   -0.4507 C   0  0  0  0  0  0  0  0  0  0  0  0
   -1.7482   -0.8735   -0.4455 C   0  0  0  0  0  0  0  0  0  0  0  0
   -2.2727   -0.0003   -1.4117 C   0  0  0  0  0  0  0  0  0  0  0  0
   -2.8994    1.1709   -1.0089 C   0  0  0  0  0  0  0  0  0  0  0  0
   -2.9992    1.4594    0.3488 C   0  0  0  0  0  0  0  0  0  0  0  0
   -2.4671    0.5812    1.3106 C   0  0  0  0  0  0  0  0  0  0  0  0
   -2.5607    0.8781    2.6772 C   0  0  0  0  0  0  0  0  0  0  0  0
   -2.0225    0.0101    3.6173 C   0  0  0  0  0  0  0  0  0  0  0  0
   -1.4003   -1.1308    3.1573 C   0  0  0  0  0  0  0  0  0  0  0  0
   -1.2877   -1.4475    1.8493 N   0  0  0  0  0  0  0  0  0  0  0  0
   -1.8226   -0.6156    0.9232 C   0  0  0  0  0  0  0  0  0  0  0  0
    0.4598   -2.0240    0.6834 H   0  0  0  0  0  0  0  0  0  0  0  0
    1.8815   -2.8945   -2.5383 H   0  0  0  0  0  0  0  0  0  0  0  0
    3.4553   -1.4345   -3.7719 H   0  0  0  0  0  0  0  0  0  0  0  0
    3.9783    0.8206   -2.9110 H   0  0  0  0  0  0  0  0  0  0  0  0
    3.6557    2.5867   -1.1767 H   0  0  0  0  0  0  0  0  0  0  0  0
    2.5740    3.3213    0.9344 H   0  0  0  0  0  0  0  0  0  0  0  0
    1.0209    1.7394    2.0862 H   0  0  0  0  0  0  0  0  0  0  0  0
   -2.1995   -0.2339   -2.4718 H   0  0  0  0  0  0  0  0  0  0  0  0
   -3.3122    1.8535   -1.7475 H   0  0  0  0  0  0  0  0  0  0  0  0
   -3.4950    2.3783    0.6555 H   0  0  0  0  0  0  0  0  0  0  0  0
   -3.0551    1.7854    3.0157 H   0  0  0  0  0  0  0  0  0  0  0  0
   -2.0885    0.2180    4.6790 H   0  0  0  0  0  0  0  0  0  0  0  0
   -0.9610   -1.8477    3.8455 H   0  0  0  0  0  0  0  0  0  0  0  0
  1  2  2  0
  2  3  2  0
  2  4  1  0
  4  5  1  0
  5  6  2  0
  6  7  1  0
  7  8  2  0
  8  9  1  0
  9 10  2  0
 10 11  1  0
 11 12  2  0
 12 13  1  0
 13 14  2  0
  2 15  1  0
 15 16  2  0
 16 17  1  0
 17 18  2  0
 18 19  1  0
 19 20  2  0
 20 21  1  0
 21 22  2  0
 22 23  1  0
 23 24  2  0
 14  5  1  0
 24 15  1  0
 14  9  1  0
 24 19  1  0
  4 25  1  0
  6 26  1  0
  7 27  1  0
  8 28  1  0
 10 29  1  0
 11 30  1  0
 12 31  1  0
 16 32  1  0
 17 33  1  0
 18 34  1  0
 20 35  1  0
 21 36  1  0
 22 37  1  0
M  END
$$$$
