
     RDKit          3D

 37 40  0  0  0  0  0  0  0  0999 V2000
   -2.9157   -2.7285    1.7191 O   0  0  0  0  0  0  0  0  0  0  0  0
   -2.9853   -2.8771    0.5114 C   0  0  0  0  0  0  0  0  0  0  0  0
   -3.6408   -3.9306   -0.0139 O   0  0  0  0  0  0  0  0  0  0  0  0
   -2.3893   -2.0005   -0.5486 C   0  0  0  0  0  0  0  0  0  0  0  0
   -1.7481   -0.7714    0.0818 C   0  0  0  0  0  0  0  0  0  0  0  0
   -1.1683    0.0711   -0.9769 N   0  0  0  0  0  0  0  0  0  0  0  0
   -0.7319    1.3226   -0.4787 C   0  0  0  0  0  0  0  0  0  0  0  0
    0.5251    1.5463    0.1190 C   0  0  0  0  0  0  0  0  0  0  0  0
    1.5611    0.5040    0.2071 C   0  0  0  0  0  0  0  0  0  0  0  0
    1.9389   -0.0151    1.4583 C   0  0  0  0  0  0  0  0  0  0  0  0
    2.9091   -1.0174    1.5876 C   0  0  0  0  0  0  0  0  0  0  0  0
    3.4998   -1.4802    0.4103 C   0  0  0  0  0  0  0  0  0  0  0  0
    4.4647   -2.4272    0.1851 N   0  0  0  0  0  0  0  0  0  0  0  0
    4.7775   -2.5947   -1.1126 N   0  0  0  0  0  0  0  0  0  0  0  0
    3.9971   -1.7084   -1.7362 C   0  0  0  0  0  0  0  0  0  0  0  0
    3.1714   -0.9869   -0.8460 C   0  0  0  0  0  0  0  0  0  0  0  0
    2.1968    0.0208   -0.9557 C   0  0  0  0  0  0  0  0  0  0  0  0
    0.9006    2.7323    0.6641 N   0  0  0  0  0  0  0  0  0  0  0  0
    0.0943    3.7726    0.6551 N   0  0  0  0  0  0  0  0  0  0  0  0
   -1.1345    3.6478    0.0941 C   0  0  0  0  0  0  0  0  0  0  0  0
   -2.1118    4.6822    0.0123 C   0  0  0  0  0  0  0  0  0  0  0  0
   -3.2679    4.2619   -0.6024 C   0  0  0  0  0  0  0  0  0  0  0  0
   -3.1776    2.6244   -1.0788 S   0  0  0  0  0  0  0  0  0  0  0  0
   -1.5700    2.4519   -0.4673 C   0  0  0  0  0  0  0  0  0  0  0  0
   -3.9802   -4.4225    0.7635 H   0  0  0  0  0  0  0  0  0  0  0  0
   -3.1818   -1.6952   -1.2411 H   0  0  0  0  0  0  0  0  0  0  0  0
   -1.6407   -2.5789   -1.1012 H   0  0  0  0  0  0  0  0  0  0  0  0
   -2.5071   -0.2132    0.6453 H   0  0  0  0  0  0  0  0  0  0  0  0
   -0.9691   -1.0772    0.7910 H   0  0  0  0  0  0  0  0  0  0  0  0
   -0.3956   -0.4118   -1.4349 H   0  0  0  0  0  0  0  0  0  0  0  0
    1.4664    0.3713    2.3619 H   0  0  0  0  0  0  0  0  0  0  0  0
    3.1866   -1.4050    2.5625 H   0  0  0  0  0  0  0  0  0  0  0  0
    4.9481   -2.9933    0.8729 H   0  0  0  0  0  0  0  0  0  0  0  0
    4.0573   -1.6244   -2.8135 H   0  0  0  0  0  0  0  0  0  0  0  0
    1.9472    0.4288   -1.9321 H   0  0  0  0  0  0  0  0  0  0  0  0
   -1.9628    5.6846    0.3918 H   0  0  0  0  0  0  0  0  0  0  0  0
   -4.1636    4.8369   -0.7948 H   0  0  0  0  0  0  0  0  0  0  0  0
  1  2  2  0
  2  3  1  0
  2  4  1  0
  4  5  1  0
  5  6  1  0
  6  7  1  0
  7  8  2  0
  8  9  1  0
  9 10  2  0
 10 11  1  0
 11 12  2  0
 12 13  1  0
 13 14  1  0
 14 15  2  0
 15 16  1  0
 16 17  2  0
  8 18  1  0
 18 19  2  0
 19 20  1  0
 20 21  1  0
 21 22  2  0
 22 23  1  0
 23 24  1  0
 24  7  1  0
 17  9  1  0
 24 20  2  0
 16 12  1  0
  3 25  1  0
  4 26  1  0
  4 27  1  0
  5 28  1  0
  5 29  1  0
  6 30  1  0
 10 31  1  0
 11 32  1  0
 13 33  1  0
 15 34  1  0
 17 35  1  0
 21 36  1  0
 22 37  1  0
M  END
$$$$
