
     RDKit          3D

 51 52  0  0  0  0  0  0  0  0999 V2000
    0.2667    3.5681    0.2526 N   0  0  0  0  0  0  0  0  0  0  0  0
    1.5928    2.9719    0.4509 C   0  0  0  0  0  0  0  0  0  0  0  0
    1.5523    1.4373    0.5668 C   0  0  0  0  0  0  0  0  0  0  0  0
    2.2527    0.7121   -0.5853 C   0  0  0  0  0  0  0  0  0  0  0  0
    3.6121    0.7466   -0.5515 C   0  0  0  0  0  0  0  0  0  0  0  0
    4.5992    0.0021   -1.0851 C   0  0  0  0  0  0  0  0  0  0  0  0
    4.5815   -1.2545   -1.5602 C   0  0  0  0  0  0  0  0  0  0  0  0
    3.5578   -2.1821   -1.5784 N   0  0  0  0  0  0  0  0  0  0  0  0
    3.4478   -3.1745   -0.6044 C   0  0  0  0  0  0  0  0  0  0  0  0
    2.4310   -3.1795    0.2914 N   0  0  0  0  0  0  0  0  0  0  0  0
    1.3129   -2.4901   -0.0497 C   0  0  0  0  0  0  0  0  0  0  0  0
    0.3449   -1.9381    0.7093 C   0  0  0  0  0  0  0  0  0  0  0  0
   -0.6484   -1.1316    0.2568 C   0  0  0  0  0  0  0  0  0  0  0  0
   -1.8082   -1.0822    1.1895 C   0  0  0  0  0  0  0  0  0  0  0  0
   -2.9238   -1.9065    0.9802 C   0  0  0  0  0  0  0  0  0  0  0  0
   -4.0173   -1.8510    1.8466 C   0  0  0  0  0  0  0  0  0  0  0  0
   -4.0024   -0.9792    2.9348 C   0  0  0  0  0  0  0  0  0  0  0  0
   -2.8906   -0.1685    3.1641 C   0  0  0  0  0  0  0  0  0  0  0  0
   -1.7967   -0.2216    2.2975 C   0  0  0  0  0  0  0  0  0  0  0  0
   -0.6990   -0.4611   -0.9265 C   0  0  0  0  0  0  0  0  0  0  0  0
   -2.0465   -0.0319   -1.4448 C   0  0  0  0  0  0  0  0  0  0  0  0
   -2.6824   -0.7526   -2.2123 O   0  0  0  0  0  0  0  0  0  0  0  0
   -2.4978    1.3449   -1.0389 C   0  0  0  0  0  0  0  0  0  0  0  0
   -3.9612    1.5232   -1.3059 C   0  0  0  0  0  0  0  0  0  0  0  0
   -4.2419    1.5953   -2.6237 F   0  0  0  0  0  0  0  0  0  0  0  0
   -4.3700    2.7029   -0.7662 F   0  0  0  0  0  0  0  0  0  0  0  0
   -4.7298    0.5686   -0.7478 F   0  0  0  0  0  0  0  0  0  0  0  0
    0.2633   -0.0795   -1.7983 C   0  0  0  0  0  0  0  0  0  0  0  0
    1.5715    0.2083   -1.6434 C   0  0  0  0  0  0  0  0  0  0  0  0
    0.3520    4.5786    0.3389 H   0  0  0  0  0  0  0  0  0  0  0  0
   -0.3477    3.2700    1.0090 H   0  0  0  0  0  0  0  0  0  0  0  0
    2.0030    3.3822    1.3825 H   0  0  0  0  0  0  0  0  0  0  0  0
    2.2500    3.3030   -0.3614 H   0  0  0  0  0  0  0  0  0  0  0  0
    0.5200    1.1229    0.7031 H   0  0  0  0  0  0  0  0  0  0  0  0
    2.0414    1.1403    1.5050 H   0  0  0  0  0  0  0  0  0  0  0  0
    4.0250    1.5008    0.1228 H   0  0  0  0  0  0  0  0  0  0  0  0
    5.6069    0.4044   -0.9691 H   0  0  0  0  0  0  0  0  0  0  0  0
    5.5183   -1.7300   -1.8361 H   0  0  0  0  0  0  0  0  0  0  0  0
    2.7091   -1.6624   -1.4526 H   0  0  0  0  0  0  0  0  0  0  0  0
    4.3759   -3.7271   -0.4538 H   0  0  0  0  0  0  0  0  0  0  0  0
    1.1040   -2.3884   -1.1158 H   0  0  0  0  0  0  0  0  0  0  0  0
    0.3635   -2.2416    1.7563 H   0  0  0  0  0  0  0  0  0  0  0  0
   -2.9376   -2.5957    0.1367 H   0  0  0  0  0  0  0  0  0  0  0  0
   -4.8752   -2.4933    1.6697 H   0  0  0  0  0  0  0  0  0  0  0  0
   -4.8509   -0.9404    3.6117 H   0  0  0  0  0  0  0  0  0  0  0  0
   -2.8692    0.4961    4.0227 H   0  0  0  0  0  0  0  0  0  0  0  0
   -0.9259    0.3992    2.4951 H   0  0  0  0  0  0  0  0  0  0  0  0
   -1.9246    2.0879   -1.6011 H   0  0  0  0  0  0  0  0  0  0  0  0
   -2.3049    1.5010    0.0245 H   0  0  0  0  0  0  0  0  0  0  0  0
   -0.0589   -0.0176   -2.8411 H   0  0  0  0  0  0  0  0  0  0  0  0
    2.1555    0.1135   -2.5651 H   0  0  0  0  0  0  0  0  0  0  0  0
  1  2  1  0
  2  3  1  0
  3  4  1  0
  4  5  2  0
  5  6  1  0
  6  7  2  0
  7  8  1  0
  8  9  1  0
  9 10  2  0
 10 11  1  0
 11 12  2  0
 12 13  1  0
 13 14  1  0
 14 15  2  0
 15 16  1  0
 16 17  2  0
 17 18  1  0
 18 19  2  0
 13 20  2  0
 20 21  1  0
 21 22  2  0
 21 23  1  0
 23 24  1  0
 24 25  1  0
 24 26  1  0
 24 27  1  0
 20 28  1  0
 28 29  2  0
 29  4  1  0
 19 14  1  0
  1 30  1  0
  1 31  1  0
  2 32  1  0
  2 33  1  0
  3 34  1  0
  3 35  1  0
  5 36  1  0
  6 37  1  0
  7 38  1  0
  8 39  1  0
  9 40  1  0
 11 41  1  0
 12 42  1  0
 15 43  1  0
 16 44  1  0
 17 45  1  0
 18 46  1  0
 19 47  1  0
 23 48  1  0
 23 49  1  0
 28 50  1  0
 29 51  1  0
M  END
$$$$
