
     RDKit          3D

 54 56  0  0  0  0  0  0  0  0999 V2000
   -8.0599    1.7014   -0.9922 C   0  0  0  0  0  0  0  0  0  0  0  0
   -7.0557    1.0736   -0.0625 C   0  0  0  0  0  0  0  0  0  0  0  0
   -7.2962    1.1337    1.3204 C   0  0  0  0  0  0  0  0  0  0  0  0
   -6.4097    0.5590    2.2262 C   0  0  0  0  0  0  0  0  0  0  0  0
   -5.2696   -0.0882    1.7608 C   0  0  0  0  0  0  0  0  0  0  0  0
   -4.9964   -0.1563    0.3850 C   0  0  0  0  0  0  0  0  0  0  0  0
   -3.7869   -0.8643   -0.0351 C   0  0  0  0  0  0  0  0  0  0  0  0
   -3.8504   -1.9650   -0.8029 N   0  0  0  0  0  0  0  0  0  0  0  0
   -2.5697   -2.3406   -0.9409 N   0  0  0  0  0  0  0  0  0  0  0  0
   -1.6684   -1.5218   -0.3206 C   0  0  0  0  0  0  0  0  0  0  0  0
   -0.2692   -1.5680   -0.2393 C   0  0  0  0  0  0  0  0  0  0  0  0
    0.3900   -0.5528    0.4707 C   0  0  0  0  0  0  0  0  0  0  0  0
    1.7775   -0.5427    0.6723 N   0  0  0  0  0  0  0  0  0  0  0  0
    2.6453   -1.1696   -0.3152 C   0  0  0  0  0  0  0  0  0  0  0  0
    4.1138   -0.8540   -0.0120 C   0  0  0  0  0  0  0  0  0  0  0  0
    4.4854    0.6202   -0.2379 C   0  0  1  0  0  0  0  0  0  0  0  0
    3.8114    1.5104    0.7354 N   0  0  0  0  0  0  0  0  0  0  0  0
    6.0158    0.8028   -0.1200 C   0  0  0  0  0  0  0  0  0  0  0  0
    6.5485    1.3356    0.8507 O   0  0  0  0  0  0  0  0  0  0  0  0
    6.7392    0.3398   -1.1981 N   0  0  0  0  0  0  0  0  0  0  0  0
    8.2036    0.3133   -1.1515 C   0  0  0  0  0  0  0  0  0  0  0  0
    8.8029   -0.9136   -0.4586 C   0  0  0  0  0  0  0  0  0  0  0  0
    8.4479   -1.0072    0.8376 F   0  0  0  0  0  0  0  0  0  0  0  0
    8.3913   -2.0467   -1.0797 F   0  0  0  0  0  0  0  0  0  0  0  0
   10.1531   -0.8879   -0.5214 F   0  0  0  0  0  0  0  0  0  0  0  0
   -0.3794    0.4196    1.1279 C   0  0  0  0  0  0  0  0  0  0  0  0
   -1.7798    0.4532    1.0396 C   0  0  0  0  0  0  0  0  0  0  0  0
   -2.4344   -0.5414    0.2939 C   0  0  0  0  0  0  0  0  0  0  0  0
   -5.8799    0.4466   -0.5428 C   0  0  0  0  0  0  0  0  0  0  0  0
   -5.5980    0.3746   -2.0245 C   0  0  0  0  0  0  0  0  0  0  0  0
   -7.6391    2.6017   -1.4506 H   0  0  0  0  0  0  0  0  0  0  0  0
   -8.9727    1.9920   -0.4610 H   0  0  0  0  0  0  0  0  0  0  0  0
   -8.3564    0.9932   -1.7727 H   0  0  0  0  0  0  0  0  0  0  0  0
   -8.1892    1.6252    1.7013 H   0  0  0  0  0  0  0  0  0  0  0  0
   -6.6138    0.6034    3.2925 H   0  0  0  0  0  0  0  0  0  0  0  0
   -4.5971   -0.5563    2.4767 H   0  0  0  0  0  0  0  0  0  0  0  0
   -2.3731   -3.1746   -1.4809 H   0  0  0  0  0  0  0  0  0  0  0  0
    0.2752   -2.3762   -0.7119 H   0  0  0  0  0  0  0  0  0  0  0  0
    2.1139    0.4043    0.8961 H   0  0  0  0  0  0  0  0  0  0  0  0
    2.3979   -0.8259   -1.3270 H   0  0  0  0  0  0  0  0  0  0  0  0
    2.5181   -2.2577   -0.2809 H   0  0  0  0  0  0  0  0  0  0  0  0
    4.3561   -1.1478    1.0182 H   0  0  0  0  0  0  0  0  0  0  0  0
    4.7329   -1.4877   -0.6594 H   0  0  0  0  0  0  0  0  0  0  0  0
    4.1865    0.9330   -1.2455 H   0  0  0  0  0  0  0  0  0  0  0  0
    4.1390    2.4654    0.5633 H   0  0  0  0  0  0  0  0  0  0  0  0
    4.2105    1.2993    1.6585 H   0  0  0  0  0  0  0  0  0  0  0  0
    6.2754   -0.2257   -1.8991 H   0  0  0  0  0  0  0  0  0  0  0  0
    8.5458    0.3446   -2.1910 H   0  0  0  0  0  0  0  0  0  0  0  0
    8.5592    1.2221   -0.6544 H   0  0  0  0  0  0  0  0  0  0  0  0
    0.1164    1.1824    1.7254 H   0  0  0  0  0  0  0  0  0  0  0  0
   -2.3414    1.2324    1.5460 H   0  0  0  0  0  0  0  0  0  0  0  0
   -6.0623    1.2014   -2.5698 H   0  0  0  0  0  0  0  0  0  0  0  0
   -4.5265    0.4555   -2.2339 H   0  0  0  0  0  0  0  0  0  0  0  0
   -5.9772   -0.5677   -2.4318 H   0  0  0  0  0  0  0  0  0  0  0  0
  1  2  1  0
  2  3  2  0
  3  4  1  0
  4  5  2  0
  5  6  1  0
  6  7  1  0
  7  8  2  0
  8  9  1  0
  9 10  1  0
 10 11  2  0
 11 12  1  0
 12 13  1  0
 13 14  1  0
 14 15  1  0
 15 16  1  0
 16 17  1  0
 16 18  1  0
 18 19  2  0
 18 20  1  0
 20 21  1  0
 21 22  1  0
 22 23  1  0
 22 24  1  0
 22 25  1  0
 12 26  2  0
 26 27  1  0
 27 28  2  0
  6 29  2  0
 29 30  1  0
 29  2  1  0
 28  7  1  0
 28 10  1  0
  1 31  1  0
  1 32  1  0
  1 33  1  0
  3 34  1  0
  4 35  1  0
  5 36  1  0
  9 37  1  0
 11 38  1  0
 13 39  1  0
 14 40  1  0
 14 41  1  0
 15 42  1  0
 15 43  1  0
 16 44  1  6
 17 45  1  0
 17 46  1  0
 20 47  1  0
 21 48  1  0
 21 49  1  0
 26 50  1  0
 27 51  1  0
 30 52  1  0
 30 53  1  0
 30 54  1  0
M  END
$$$$
