
     RDKit          3D

 37 40  0  0  0  0  0  0  0  0999 V2000
   -4.7616   -3.0369    0.6715 O   0  0  0  0  0  0  0  0  0  0  0  0
   -3.5481   -2.7131   -0.0019 C   0  0  0  0  0  0  0  0  0  0  0  0
   -3.0640   -1.3142    0.3892 C   0  0  0  0  0  0  0  0  0  0  0  0
   -1.7706   -1.0245   -0.2141 N   0  0  0  0  0  0  0  0  0  0  0  0
   -1.1287    0.2034   -0.1201 C   0  0  0  0  0  0  0  0  0  0  0  0
    0.1880    0.4581    0.0611 C   0  0  0  0  0  0  0  0  0  0  0  0
    1.2401   -0.5215    0.2082 C   0  0  0  0  0  0  0  0  0  0  0  0
    0.9991   -1.8455    0.3372 N   0  0  0  0  0  0  0  0  0  0  0  0
    2.2189   -2.3938    0.4408 N   0  0  0  0  0  0  0  0  0  0  0  0
    3.2511   -1.5025    0.3959 C   0  0  0  0  0  0  0  0  0  0  0  0
    4.6360   -1.6881    0.4736 C   0  0  0  0  0  0  0  0  0  0  0  0
    5.4395   -0.5476    0.3897 C   0  0  0  0  0  0  0  0  0  0  0  0
    4.8760    0.7170    0.2343 C   0  0  0  0  0  0  0  0  0  0  0  0
    3.4864    0.8767    0.1587 C   0  0  0  0  0  0  0  0  0  0  0  0
    2.6504   -0.2571    0.2427 C   0  0  0  0  0  0  0  0  0  0  0  0
    0.4912    1.8057    0.0866 N   0  0  0  0  0  0  0  0  0  0  0  0
   -0.6457    2.3831   -0.1355 C   0  0  0  0  0  0  0  0  0  0  0  0
   -0.8486    3.7988   -0.4455 C   0  0  0  0  0  0  0  0  0  0  0  0
   -1.8917    4.0315   -1.2560 C   0  0  0  0  0  0  0  0  0  0  0  0
   -2.7281    3.0896   -1.8207 N   0  0  0  0  0  0  0  0  0  0  0  0
   -2.6902    1.8785   -1.3421 C   0  0  0  0  0  0  0  0  0  0  0  0
   -1.8604    1.5056   -0.1465 C   0  0  0  0  0  0  0  0  0  0  0  0
   -4.5464   -3.1701    1.6109 H   0  0  0  0  0  0  0  0  0  0  0  0
   -3.7331   -2.7643   -1.0799 H   0  0  0  0  0  0  0  0  0  0  0  0
   -2.8017   -3.4764    0.2436 H   0  0  0  0  0  0  0  0  0  0  0  0
   -3.8153   -0.5783    0.0806 H   0  0  0  0  0  0  0  0  0  0  0  0
   -2.9878   -1.2442    1.4810 H   0  0  0  0  0  0  0  0  0  0  0  0
   -1.0729   -1.7683   -0.0494 H   0  0  0  0  0  0  0  0  0  0  0  0
    2.2852   -3.3994    0.5421 H   0  0  0  0  0  0  0  0  0  0  0  0
    5.0759   -2.6727    0.5926 H   0  0  0  0  0  0  0  0  0  0  0  0
    6.5211   -0.6488    0.4453 H   0  0  0  0  0  0  0  0  0  0  0  0
    5.5182    1.5921    0.1693 H   0  0  0  0  0  0  0  0  0  0  0  0
    3.0613    1.8687    0.0354 H   0  0  0  0  0  0  0  0  0  0  0  0
   -0.1544    4.5480   -0.0989 H   0  0  0  0  0  0  0  0  0  0  0  0
   -2.0874    5.0544   -1.5735 H   0  0  0  0  0  0  0  0  0  0  0  0
   -3.3527    1.1106   -1.7726 H   0  0  0  0  0  0  0  0  0  0  0  0
   -2.4488    1.6455    0.7665 H   0  0  0  0  0  0  0  0  0  0  0  0
  1  2  1  0
  2  3  1  0
  3  4  1  0
  4  5  1  0
  5  6  2  0
  6  7  1  0
  7  8  2  0
  8  9  1  0
  9 10  1  0
 10 11  2  0
 11 12  1  0
 12 13  2  0
 13 14  1  0
 14 15  2  0
  6 16  1  0
 16 17  2  0
 17 18  1  0
 18 19  2  0
 19 20  1  0
 20 21  2  0
 21 22  1  0
 22  5  1  0
 15  7  1  0
 22 17  1  0
 15 10  1  0
  1 23  1  0
  2 24  1  0
  2 25  1  0
  3 26  1  0
  3 27  1  0
  4 28  1  0
  9 29  1  0
 11 30  1  0
 12 31  1  0
 13 32  1  0
 14 33  1  0
 18 34  1  0
 19 35  1  0
 21 36  1  0
 22 37  1  0
M  END
$$$$
