
     RDKit          3D

 49 52  0  0  0  0  0  0  0  0999 V2000
    4.6245   -3.0523   -0.0819 C   0  0  0  0  0  0  0  0  0  0  0  0
    4.0133   -1.7753    0.0328 O   0  0  0  0  0  0  0  0  0  0  0  0
    2.6495   -1.7269    0.1831 C   0  0  0  0  0  0  0  0  0  0  0  0
    1.8227   -2.8561    0.1958 C   0  0  0  0  0  0  0  0  0  0  0  0
    0.4402   -2.7247    0.3613 C   0  0  0  0  0  0  0  0  0  0  0  0
   -0.1471   -1.4656    0.5087 C   0  0  0  0  0  0  0  0  0  0  0  0
   -1.6066   -1.3534    0.6748 C   0  0  0  0  0  0  0  0  0  0  0  0
   -2.4154   -0.4704    0.0452 C   0  0  0  0  0  0  0  0  0  0  0  0
   -2.1047    0.4901   -0.9083 N   0  0  0  0  0  0  0  0  0  0  0  0
   -3.0021    0.9274   -1.9753 C   0  0  0  0  0  0  0  0  0  0  0  0
   -2.5077    2.2430   -2.5841 C   0  0  0  0  0  0  0  0  0  0  0  0
   -3.3238    2.6067   -3.6923 O   0  0  0  0  0  0  0  0  0  0  0  0
   -3.8243   -0.7542    0.4753 C   0  0  0  0  0  0  0  0  0  0  0  0
   -4.6349    0.3121    1.1575 C   0  0  0  0  0  0  0  0  0  0  0  0
   -5.4436    0.0568    2.1462 N   0  0  0  0  0  0  0  0  0  0  0  0
   -5.4674   -1.2321    2.6392 C   0  0  0  0  0  0  0  0  0  0  0  0
   -4.5671   -2.1994    2.4074 C   0  0  0  0  0  0  0  0  0  0  0  0
   -3.4927   -1.7971    1.4995 C   0  0  0  0  0  0  0  0  0  0  0  0
   -2.2667   -2.2067    1.5360 N   0  0  0  0  0  0  0  0  0  0  0  0
    0.6865   -0.3391    0.5207 C   0  0  0  0  0  0  0  0  0  0  0  0
    2.0829   -0.4429    0.3470 C   0  0  0  0  0  0  0  0  0  0  0  0
    2.8937    0.7914    0.3386 C   0  0  0  0  0  0  0  0  0  0  0  0
    3.6348    1.1650   -0.7959 C   0  0  0  0  0  0  0  0  0  0  0  0
    4.3834    2.3451   -0.8106 C   0  0  0  0  0  0  0  0  0  0  0  0
    4.3958    3.1635    0.3103 C   0  0  0  0  0  0  0  0  0  0  0  0
    5.1355    4.3074    0.2561 O   0  0  0  0  0  0  0  0  0  0  0  0
    3.6742    2.8220    1.4481 C   0  0  0  0  0  0  0  0  0  0  0  0
    2.9262    1.6398    1.4591 C   0  0  0  0  0  0  0  0  0  0  0  0
    4.2934   -3.5643   -0.9899 H   0  0  0  0  0  0  0  0  0  0  0  0
    5.7053   -2.9008   -0.1615 H   0  0  0  0  0  0  0  0  0  0  0  0
    4.4407   -3.6627    0.8081 H   0  0  0  0  0  0  0  0  0  0  0  0
    2.2201   -3.8586    0.0828 H   0  0  0  0  0  0  0  0  0  0  0  0
   -0.1825   -3.6178    0.3747 H   0  0  0  0  0  0  0  0  0  0  0  0
   -1.1447    0.3806   -1.2421 H   0  0  0  0  0  0  0  0  0  0  0  0
   -3.0548    0.1537   -2.7507 H   0  0  0  0  0  0  0  0  0  0  0  0
   -4.0250    1.0700   -1.6083 H   0  0  0  0  0  0  0  0  0  0  0  0
   -1.4706    2.1551   -2.9287 H   0  0  0  0  0  0  0  0  0  0  0  0
   -2.5506    3.0460   -1.8393 H   0  0  0  0  0  0  0  0  0  0  0  0
   -2.9285    3.4103   -4.0755 H   0  0  0  0  0  0  0  0  0  0  0  0
   -4.4066   -1.1900   -0.3442 H   0  0  0  0  0  0  0  0  0  0  0  0
   -4.5994    1.3331    0.7470 H   0  0  0  0  0  0  0  0  0  0  0  0
   -6.2764   -1.4303    3.3394 H   0  0  0  0  0  0  0  0  0  0  0  0
   -4.5567   -3.1653    2.8868 H   0  0  0  0  0  0  0  0  0  0  0  0
    0.2472    0.6474    0.6697 H   0  0  0  0  0  0  0  0  0  0  0  0
    3.6354    0.5293   -1.6783 H   0  0  0  0  0  0  0  0  0  0  0  0
    4.9545    2.6188   -1.6933 H   0  0  0  0  0  0  0  0  0  0  0  0
    5.0927    4.7422    1.1229 H   0  0  0  0  0  0  0  0  0  0  0  0
    3.6780    3.4538    2.3300 H   0  0  0  0  0  0  0  0  0  0  0  0
    2.3693    1.3750    2.3562 H   0  0  0  0  0  0  0  0  0  0  0  0
  1  2  1  0
  2  3  1  0
  3  4  2  0
  4  5  1  0
  5  6  2  0
  6  7  1  0
  7  8  2  0
  8  9  1  0
  9 10  1  0
 10 11  1  0
 11 12  1  0
  8 13  1  0
 13 14  1  0
 14 15  2  0
 15 16  1  0
 16 17  2  0
 17 18  1  0
 18 19  2  0
  6 20  1  0
 20 21  2  0
 21 22  1  0
 22 23  2  0
 23 24  1  0
 24 25  2  0
 25 26  1  0
 25 27  1  0
 27 28  2  0
 21  3  1  0
 28 22  1  0
 19  7  1  0
 18 13  1  0
  1 29  1  0
  1 30  1  0
  1 31  1  0
  4 32  1  0
  5 33  1  0
  9 34  1  0
 10 35  1  0
 10 36  1  0
 11 37  1  0
 11 38  1  0
 12 39  1  0
 13 40  1  0
 14 41  1  0
 16 42  1  0
 17 43  1  0
 20 44  1  0
 23 45  1  0
 24 46  1  0
 26 47  1  0
 27 48  1  0
 28 49  1  0
M  END
$$$$
