
     RDKit          3D

 45 48  0  0  0  0  0  0  0  0999 V2000
   -3.2578    3.1882    2.1366 O   0  0  0  0  0  0  0  0  0  0  0  0
   -3.8238    3.1506    0.8261 C   0  0  0  0  0  0  0  0  0  0  0  0
   -3.9717    1.6956    0.3640 C   0  0  0  0  0  0  0  0  0  0  0  0
   -2.6647    1.0599    0.3234 N   0  0  0  0  0  0  0  0  0  0  0  0
   -2.3053   -0.1352   -0.2651 C   0  0  0  0  0  0  0  0  0  0  0  0
   -1.1393   -0.8145   -0.1725 C   0  0  0  0  0  0  0  0  0  0  0  0
    0.0113   -0.4559    0.6709 C   0  0  0  0  0  0  0  0  0  0  0  0
   -0.1363   -0.1997    2.0380 C   0  0  0  0  0  0  0  0  0  0  0  0
    0.9777    0.1217    2.8091 C   0  0  0  0  0  0  0  0  0  0  0  0
    0.7857    0.4442    4.4896 Cl  0  0  0  0  0  0  0  0  0  0  0  0
    2.2487    0.1811    2.2373 C   0  0  0  0  0  0  0  0  0  0  0  0
    2.4319   -0.0891    0.8726 C   0  0  0  0  0  0  0  0  0  0  0  0
    3.7714   -0.0440    0.2617 C   0  0  0  0  0  0  0  0  0  0  0  0
    4.2545   -1.1203   -0.5026 C   0  0  0  0  0  0  0  0  0  0  0  0
    5.5254   -1.0793   -1.0821 C   0  0  0  0  0  0  0  0  0  0  0  0
    6.3269    0.0397   -0.9039 C   0  0  0  0  0  0  0  0  0  0  0  0
    7.5592    0.0393   -1.4863 O   0  0  0  0  0  0  0  0  0  0  0  0
    5.8791    1.1209   -0.1546 C   0  0  0  0  0  0  0  0  0  0  0  0
    4.6066    1.0759    0.4244 C   0  0  0  0  0  0  0  0  0  0  0  0
    1.2969   -0.4105    0.1064 C   0  0  0  0  0  0  0  0  0  0  0  0
   -1.0694   -1.9322   -0.9765 N   0  0  0  0  0  0  0  0  0  0  0  0
   -2.2356   -1.9871   -1.5330 C   0  0  0  0  0  0  0  0  0  0  0  0
   -2.7664   -3.1079   -2.3092 C   0  0  0  0  0  0  0  0  0  0  0  0
   -4.0933   -3.2642   -2.1972 C   0  0  0  0  0  0  0  0  0  0  0  0
   -4.9512   -2.5120   -1.4210 N   0  0  0  0  0  0  0  0  0  0  0  0
   -4.5062   -1.3838   -0.9450 C   0  0  0  0  0  0  0  0  0  0  0  0
   -3.1536   -0.8246   -1.2944 C   0  0  0  0  0  0  0  0  0  0  0  0
   -3.1437    4.1258    2.3704 H   0  0  0  0  0  0  0  0  0  0  0  0
   -3.1648    3.7066    0.1511 H   0  0  0  0  0  0  0  0  0  0  0  0
   -4.8022    3.6396    0.8567 H   0  0  0  0  0  0  0  0  0  0  0  0
   -4.4414    1.6768   -0.6248 H   0  0  0  0  0  0  0  0  0  0  0  0
   -4.6056    1.1506    1.0715 H   0  0  0  0  0  0  0  0  0  0  0  0
   -2.0401    1.3886    1.0630 H   0  0  0  0  0  0  0  0  0  0  0  0
   -1.1160   -0.2654    2.5049 H   0  0  0  0  0  0  0  0  0  0  0  0
    3.1054    0.4183    2.8643 H   0  0  0  0  0  0  0  0  0  0  0  0
    3.6436   -2.0101   -0.6442 H   0  0  0  0  0  0  0  0  0  0  0  0
    5.8859   -1.9202   -1.6677 H   0  0  0  0  0  0  0  0  0  0  0  0
    8.0024    0.8767   -1.2739 H   0  0  0  0  0  0  0  0  0  0  0  0
    6.4959    2.0022   -0.0115 H   0  0  0  0  0  0  0  0  0  0  0  0
    4.2625    1.9339    0.9988 H   0  0  0  0  0  0  0  0  0  0  0  0
    1.4082   -0.6235   -0.9569 H   0  0  0  0  0  0  0  0  0  0  0  0
   -2.1065   -3.7724   -2.8446 H   0  0  0  0  0  0  0  0  0  0  0  0
   -4.5643   -4.1033   -2.7066 H   0  0  0  0  0  0  0  0  0  0  0  0
   -5.1810   -0.7711   -0.3292 H   0  0  0  0  0  0  0  0  0  0  0  0
   -3.2396   -0.2099   -2.1973 H   0  0  0  0  0  0  0  0  0  0  0  0
  1  2  1  0
  2  3  1  0
  3  4  1  0
  4  5  1  0
  5  6  2  0
  6  7  1  0
  7  8  2  0
  8  9  1  0
  9 10  1  0
  9 11  2  0
 11 12  1  0
 12 13  1  0
 13 14  2  0
 14 15  1  0
 15 16  2  0
 16 17  1  0
 16 18  1  0
 18 19  2  0
 12 20  2  0
  6 21  1  0
 21 22  2  0
 22 23  1  0
 23 24  2  0
 24 25  1  0
 25 26  2  0
 26 27  1  0
 27  5  1  0
 20  7  1  0
 27 22  1  0
 19 13  1  0
  1 28  1  0
  2 29  1  0
  2 30  1  0
  3 31  1  0
  3 32  1  0
  4 33  1  0
  8 34  1  0
 11 35  1  0
 14 36  1  0
 15 37  1  0
 17 38  1  0
 18 39  1  0
 19 40  1  0
 20 41  1  0
 23 42  1  0
 24 43  1  0
 26 44  1  0
 27 45  1  0
M  END
$$$$
