
     RDKit          3D

 48 50  0  0  0  0  0  0  0  0999 V2000
    6.2085   -0.5584   -2.3729 C   0  0  0  0  0  0  0  0  0  0  0  0
    4.9780   -0.6188   -1.6612 O   0  0  0  0  0  0  0  0  0  0  0  0
    5.0532   -0.7909   -0.3062 C   0  0  0  0  0  0  0  0  0  0  0  0
    6.2251   -0.9291    0.4386 C   0  0  0  0  0  0  0  0  0  0  0  0
    6.1577   -1.1158    1.8216 C   0  0  0  0  0  0  0  0  0  0  0  0
    4.9215   -1.1564    2.4604 C   0  0  0  0  0  0  0  0  0  0  0  0
    4.9418   -1.3713    3.8123 O   0  0  0  0  0  0  0  0  0  0  0  0
    3.7372   -0.9861    1.7319 C   0  0  0  0  0  0  0  0  0  0  0  0
    2.4314   -1.0169    2.4393 C   0  0  0  0  0  0  0  0  0  0  0  0
    2.3567   -1.6142    3.5137 O   0  0  0  0  0  0  0  0  0  0  0  0
    1.2215   -0.3434    1.9112 C   0  0  0  0  0  0  0  0  0  0  0  0
   -0.0161   -0.9819    2.0618 C   0  0  0  0  0  0  0  0  0  0  0  0
   -1.1840   -0.3720    1.5931 C   0  0  0  0  0  0  0  0  0  0  0  0
   -1.1182    0.8840    0.9752 C   0  0  0  0  0  0  0  0  0  0  0  0
   -2.3319    1.5756    0.4571 C   0  0  0  0  0  0  0  0  0  0  0  0
   -2.3480    2.7966    0.3542 O   0  0  0  0  0  0  0  0  0  0  0  0
   -3.3836    0.7666    0.0730 N   0  0  0  0  0  0  0  0  0  0  0  0
   -4.5483    1.3372   -0.6033 C   0  0  2  0  0  0  0  0  0  0  0  0
   -5.7536    0.4045   -0.4739 C   0  0  0  0  0  0  0  0  0  0  0  0
   -5.6129   -0.8635   -1.3240 C   0  0  0  0  0  0  0  0  0  0  0  0
   -4.6267   -0.7170   -2.4840 C   0  0  0  0  0  0  0  0  0  0  0  0
   -4.6674    0.6179   -3.0658 N   0  0  0  0  0  0  0  0  0  0  0  0
   -4.2659    1.6565   -2.0969 C   0  0  0  0  0  0  0  0  0  0  0  0
    0.1176    1.5362    0.8615 C   0  0  0  0  0  0  0  0  0  0  0  0
    1.2853    0.9281    1.3316 C   0  0  0  0  0  0  0  0  0  0  0  0
    3.8130   -0.8278    0.3420 C   0  0  0  0  0  0  0  0  0  0  0  0
    6.8159    0.2905   -2.0407 H   0  0  0  0  0  0  0  0  0  0  0  0
    5.9748   -0.4068   -3.4312 H   0  0  0  0  0  0  0  0  0  0  0  0
    6.7610   -1.4997   -2.2849 H   0  0  0  0  0  0  0  0  0  0  0  0
    7.2067   -0.9099   -0.0243 H   0  0  0  0  0  0  0  0  0  0  0  0
    7.0695   -1.2406    2.4011 H   0  0  0  0  0  0  0  0  0  0  0  0
    4.0185   -1.5587    4.0984 H   0  0  0  0  0  0  0  0  0  0  0  0
   -0.0736   -1.9511    2.5547 H   0  0  0  0  0  0  0  0  0  0  0  0
   -2.1348   -0.8747    1.7479 H   0  0  0  0  0  0  0  0  0  0  0  0
   -3.1902   -0.2129   -0.0787 H   0  0  0  0  0  0  0  0  0  0  0  0
   -4.7811    2.2796   -0.0915 H   0  0  0  0  0  0  0  0  0  0  0  0
   -5.9298    0.1304    0.5731 H   0  0  0  0  0  0  0  0  0  0  0  0
   -6.6488    0.9464   -0.8067 H   0  0  0  0  0  0  0  0  0  0  0  0
   -5.2862   -1.6962   -0.6895 H   0  0  0  0  0  0  0  0  0  0  0  0
   -6.6033   -1.1379   -1.7078 H   0  0  0  0  0  0  0  0  0  0  0  0
   -3.6056   -0.9511   -2.1602 H   0  0  0  0  0  0  0  0  0  0  0  0
   -4.8683   -1.4555   -3.2568 H   0  0  0  0  0  0  0  0  0  0  0  0
   -5.6186    0.8134   -3.3802 H   0  0  0  0  0  0  0  0  0  0  0  0
   -4.8078    2.5716   -2.3665 H   0  0  0  0  0  0  0  0  0  0  0  0
   -3.2033    1.8786   -2.2485 H   0  0  0  0  0  0  0  0  0  0  0  0
    0.1709    2.5271    0.4120 H   0  0  0  0  0  0  0  0  0  0  0  0
    2.2273    1.4666    1.2546 H   0  0  0  0  0  0  0  0  0  0  0  0
    2.9147   -0.7442   -0.2646 H   0  0  0  0  0  0  0  0  0  0  0  0
  1  2  1  0
  2  3  1  0
  3  4  2  0
  4  5  1  0
  5  6  2  0
  6  7  1  0
  6  8  1  0
  8  9  1  0
  9 10  2  0
  9 11  1  0
 11 12  2  0
 12 13  1  0
 13 14  2  0
 14 15  1  0
 15 16  2  0
 15 17  1  0
 17 18  1  0
 18 19  1  0
 19 20  1  0
 20 21  1  0
 21 22  1  0
 22 23  1  0
 14 24  1  0
 24 25  2  0
  8 26  2  0
 26  3  1  0
 25 11  1  0
 23 18  1  0
  1 27  1  0
  1 28  1  0
  1 29  1  0
  4 30  1  0
  5 31  1  0
  7 32  1  0
 12 33  1  0
 13 34  1  0
 17 35  1  0
 18 36  1  1
 19 37  1  0
 19 38  1  0
 20 39  1  0
 20 40  1  0
 21 41  1  0
 21 42  1  0
 22 43  1  0
 23 44  1  0
 23 45  1  0
 24 46  1  0
 25 47  1  0
 26 48  1  0
M  END
$$$$
