
     RDKit          3D

 40 44  0  0  0  0  0  0  0  0999 V2000
   -3.9237    2.0279    0.9782 C   0  0  0  0  0  0  0  0  0  0  0  0
   -3.4781    1.1165   -0.0153 O   0  0  0  0  0  0  0  0  0  0  0  0
   -3.9143   -0.2307    0.2258 C   0  0  1  0  0  0  0  0  0  0  0  0
   -5.2410   -0.4749   -0.5418 C   0  0  0  0  0  0  0  0  0  0  0  0
   -5.0619   -1.0372   -1.9242 C   0  0  0  0  0  0  0  0  0  0  0  0
   -3.9194   -1.6274   -2.2867 C   0  0  0  0  0  0  0  0  0  0  0  0
   -3.7963   -2.1566   -3.5202 F   0  0  0  0  0  0  0  0  0  0  0  0
   -2.8256   -1.7981   -1.3704 C   0  0  0  0  0  0  0  0  0  0  0  0
   -2.7709   -1.1579   -0.1829 C   0  0  0  0  0  0  0  0  0  0  0  0
   -1.7034   -1.3516    0.8153 C   0  0  0  0  0  0  0  0  0  0  0  0
   -0.3211   -1.4200    0.3931 C   0  0  0  0  0  0  0  0  0  0  0  0
    1.0139   -1.1866    0.1320 C   0  0  0  0  0  0  0  0  0  0  0  0
    1.3905    0.0282    0.6150 C   0  0  0  0  0  0  0  0  0  0  0  0
    2.7565    0.7624    0.5906 C   0  0  0  0  0  0  0  0  0  0  0  0
    2.8471    1.9735    1.1587 N   0  0  0  0  0  0  0  0  0  0  0  0
    4.1292    2.3179    0.9629 N   0  0  0  0  0  0  0  0  0  0  0  0
    4.8723    1.3802    0.2998 C   0  0  0  0  0  0  0  0  0  0  0  0
    6.2185    1.3711   -0.0815 C   0  0  0  0  0  0  0  0  0  0  0  0
    6.6814    0.2416   -0.7618 C   0  0  0  0  0  0  0  0  0  0  0  0
    5.8304   -0.8251   -1.0443 C   0  0  0  0  0  0  0  0  0  0  0  0
    4.4852   -0.7938   -0.6526 C   0  0  0  0  0  0  0  0  0  0  0  0
    3.9932    0.3328    0.0354 C   0  0  0  0  0  0  0  0  0  0  0  0
    0.2771    0.5541    1.1719 N   0  0  0  0  0  0  0  0  0  0  0  0
   -0.7999   -0.2453    1.0933 C   0  0  0  0  0  0  0  0  0  0  0  0
   -3.4872    1.7755    1.9494 H   0  0  0  0  0  0  0  0  0  0  0  0
   -5.0155    2.0294    1.0454 H   0  0  0  0  0  0  0  0  0  0  0  0
   -3.5898    3.0308    0.6989 H   0  0  0  0  0  0  0  0  0  0  0  0
   -4.1115   -0.3709    1.2978 H   0  0  0  0  0  0  0  0  0  0  0  0
   -5.8078    0.4599   -0.6200 H   0  0  0  0  0  0  0  0  0  0  0  0
   -5.8588   -1.1846    0.0226 H   0  0  0  0  0  0  0  0  0  0  0  0
   -5.8817   -0.9690   -2.6302 H   0  0  0  0  0  0  0  0  0  0  0  0
   -2.0365   -2.4742   -1.6839 H   0  0  0  0  0  0  0  0  0  0  0  0
   -1.9942   -1.9790    1.6488 H   0  0  0  0  0  0  0  0  0  0  0  0
    1.6647   -1.8754   -0.3858 H   0  0  0  0  0  0  0  0  0  0  0  0
    4.4426    3.2167    1.3095 H   0  0  0  0  0  0  0  0  0  0  0  0
    6.8812    2.2019    0.1371 H   0  0  0  0  0  0  0  0  0  0  0  0
    7.7218    0.1950   -1.0765 H   0  0  0  0  0  0  0  0  0  0  0  0
    6.2123   -1.6936   -1.5762 H   0  0  0  0  0  0  0  0  0  0  0  0
    3.8418   -1.6350   -0.8851 H   0  0  0  0  0  0  0  0  0  0  0  0
    0.2788    1.4716    1.5945 H   0  0  0  0  0  0  0  0  0  0  0  0
  1  2  1  0
  2  3  1  0
  3  4  1  0
  4  5  1  0
  5  6  2  0
  6  7  1  0
  6  8  1  0
  8  9  2  0
  9 10  1  0
 10 11  1  0
 11 12  1  0
 12 13  2  0
 13 14  1  0
 14 15  2  0
 15 16  1  0
 16 17  1  0
 17 18  2  0
 18 19  1  0
 19 20  2  0
 20 21  1  0
 21 22  2  0
 13 23  1  0
 23 24  1  0
  9  3  1  0
 24 10  1  0
 24 11  2  0
 22 14  1  0
 22 17  1  0
  1 25  1  0
  1 26  1  0
  1 27  1  0
  3 28  1  1
  4 29  1  0
  4 30  1  0
  5 31  1  0
  8 32  1  0
 10 33  1  0
 12 34  1  0
 16 35  1  0
 18 36  1  0
 19 37  1  0
 20 38  1  0
 21 39  1  0
 23 40  1  0
M  END
$$$$
