
     RDKit          3D

 51 53  0  0  0  0  0  0  0  0999 V2000
    6.2871    1.0508    2.8334 C   0  0  0  0  0  0  0  0  0  0  0  0
    5.1871    0.6051    2.0502 O   0  0  0  0  0  0  0  0  0  0  0  0
    5.1784    0.9490    0.7247 C   0  0  0  0  0  0  0  0  0  0  0  0
    6.1316    1.7485    0.0916 C   0  0  0  0  0  0  0  0  0  0  0  0
    6.0191    2.0206   -1.2737 C   0  0  0  0  0  0  0  0  0  0  0  0
    4.9529    1.5024   -2.0053 C   0  0  0  0  0  0  0  0  0  0  0  0
    4.9352    1.8078   -3.3406 O   0  0  0  0  0  0  0  0  0  0  0  0
    3.9698    0.7205   -1.3847 C   0  0  0  0  0  0  0  0  0  0  0  0
    2.8370    0.2014   -2.1888 C   0  0  0  0  0  0  0  0  0  0  0  0
    2.9494    0.1591   -3.4143 O   0  0  0  0  0  0  0  0  0  0  0  0
    1.5538   -0.2134   -1.5809 C   0  0  0  0  0  0  0  0  0  0  0  0
    0.8291    0.7307   -0.8381 C   0  0  0  0  0  0  0  0  0  0  0  0
   -0.4048    0.3867   -0.2805 C   0  0  0  0  0  0  0  0  0  0  0  0
   -0.9288   -0.8952   -0.4827 C   0  0  0  0  0  0  0  0  0  0  0  0
   -2.2397   -1.3127    0.0869 C   0  0  0  0  0  0  0  0  0  0  0  0
   -2.4360   -2.4857    0.3819 O   0  0  0  0  0  0  0  0  0  0  0  0
   -3.1936   -0.3262    0.2259 N   0  0  0  0  0  0  0  0  0  0  0  0
   -4.4939   -0.6061    0.8228 C   0  0  2  0  0  0  0  0  0  0  0  0
   -5.5160    0.4525    0.3954 C   0  0  0  0  0  0  0  0  0  0  0  0
   -6.8494    0.2375    1.1057 C   0  0  0  0  0  0  0  0  0  0  0  0
   -6.6649    0.1665    2.6202 C   0  0  0  0  0  0  0  0  0  0  0  0
   -5.7167   -0.8770    3.0092 N   0  0  0  0  0  0  0  0  0  0  0  0
   -4.4103   -0.6772    2.3654 C   0  0  0  0  0  0  0  0  0  0  0  0
   -0.1990   -1.8366   -1.2239 C   0  0  0  0  0  0  0  0  0  0  0  0
    1.0475   -1.5096   -1.7832 C   0  0  0  0  0  0  0  0  0  0  0  0
    1.7867   -2.5379   -2.5925 C   0  0  0  0  0  0  0  0  0  0  0  0
    4.1060    0.4383   -0.0232 C   0  0  0  0  0  0  0  0  0  0  0  0
    3.2160   -0.3527    0.5975 F   0  0  0  0  0  0  0  0  0  0  0  0
    6.3125    2.1440    2.8899 H   0  0  0  0  0  0  0  0  0  0  0  0
    6.1510    0.6681    3.8495 H   0  0  0  0  0  0  0  0  0  0  0  0
    7.2324    0.6519    2.4508 H   0  0  0  0  0  0  0  0  0  0  0  0
    6.9772    2.1697    0.6260 H   0  0  0  0  0  0  0  0  0  0  0  0
    6.7675    2.6332   -1.7717 H   0  0  0  0  0  0  0  0  0  0  0  0
    4.2298    1.2673   -3.7664 H   0  0  0  0  0  0  0  0  0  0  0  0
    1.2182    1.7350   -0.6878 H   0  0  0  0  0  0  0  0  0  0  0  0
   -0.9279    1.1204    0.3253 H   0  0  0  0  0  0  0  0  0  0  0  0
   -2.9978    0.6155   -0.0822 H   0  0  0  0  0  0  0  0  0  0  0  0
   -4.8264   -1.5842    0.4498 H   0  0  0  0  0  0  0  0  0  0  0  0
   -5.1377    1.4561    0.6306 H   0  0  0  0  0  0  0  0  0  0  0  0
   -5.6620    0.4208   -0.6909 H   0  0  0  0  0  0  0  0  0  0  0  0
   -7.3111   -0.6904    0.7452 H   0  0  0  0  0  0  0  0  0  0  0  0
   -7.5357    1.0543    0.8553 H   0  0  0  0  0  0  0  0  0  0  0  0
   -6.3261    1.1355    3.0064 H   0  0  0  0  0  0  0  0  0  0  0  0
   -7.6305   -0.0387    3.0953 H   0  0  0  0  0  0  0  0  0  0  0  0
   -6.0809   -1.7877    2.7246 H   0  0  0  0  0  0  0  0  0  0  0  0
   -3.7486   -1.4982    2.6649 H   0  0  0  0  0  0  0  0  0  0  0  0
   -3.9497    0.2382    2.7594 H   0  0  0  0  0  0  0  0  0  0  0  0
   -0.6135   -2.8347   -1.3658 H   0  0  0  0  0  0  0  0  0  0  0  0
    2.8398   -2.5821   -2.2961 H   0  0  0  0  0  0  0  0  0  0  0  0
    1.3702   -3.5392   -2.4387 H   0  0  0  0  0  0  0  0  0  0  0  0
    1.7158   -2.3023   -3.6588 H   0  0  0  0  0  0  0  0  0  0  0  0
  1  2  1  0
  2  3  1  0
  3  4  2  0
  4  5  1  0
  5  6  2  0
  6  7  1  0
  6  8  1  0
  8  9  1  0
  9 10  2  0
  9 11  1  0
 11 12  2  0
 12 13  1  0
 13 14  2  0
 14 15  1  0
 15 16  2  0
 15 17  1  0
 17 18  1  0
 18 19  1  0
 19 20  1  0
 20 21  1  0
 21 22  1  0
 22 23  1  0
 14 24  1  0
 24 25  2  0
 25 26  1  0
  8 27  2  0
 27 28  1  0
 27  3  1  0
 25 11  1  0
 23 18  1  0
  1 29  1  0
  1 30  1  0
  1 31  1  0
  4 32  1  0
  5 33  1  0
  7 34  1  0
 12 35  1  0
 13 36  1  0
 17 37  1  0
 18 38  1  6
 19 39  1  0
 19 40  1  0
 20 41  1  0
 20 42  1  0
 21 43  1  0
 21 44  1  0
 22 45  1  0
 23 46  1  0
 23 47  1  0
 24 48  1  0
 26 49  1  0
 26 50  1  0
 26 51  1  0
M  END
$$$$
