
     RDKit          3D

 56 59  0  0  0  0  0  0  0  0999 V2000
    0.1970   -2.2046    0.3586 O   0  0  0  0  0  0  0  0  0  0  0  0
    0.2879   -1.0097    0.6147 C   0  0  0  0  0  0  0  0  0  0  0  0
   -0.7764   -0.2374    1.0393 N   0  0  0  0  0  0  0  0  0  0  0  0
   -2.1209   -0.8000    1.1350 C   0  0  0  0  0  0  0  0  0  0  0  0
   -2.9852    0.0080    2.1129 C   0  0  0  0  0  0  0  0  0  0  0  0
   -3.9410    0.9464    1.3891 C   0  0  0  0  0  0  0  0  0  0  0  0
   -4.8199    0.2229    0.4730 N   0  0  0  0  0  0  0  0  0  0  0  0
   -6.0101    0.8449    0.0989 C   0  0  0  0  0  0  0  0  0  0  0  0
   -6.3041    1.9926    0.4232 O   0  0  0  0  0  0  0  0  0  0  0  0
   -6.9851    0.1011   -0.7248 C   0  0  0  0  0  0  0  0  0  0  0  0
   -7.4447   -1.1550   -0.3305 C   0  0  0  0  0  0  0  0  0  0  0  0
   -8.3787   -1.7772   -1.1373 C   0  0  0  0  0  0  0  0  0  0  0  0
   -8.8677   -1.2316   -2.2701 N   0  0  0  0  0  0  0  0  0  0  0  0
   -8.4198   -0.0006   -2.5968 C   0  0  0  0  0  0  0  0  0  0  0  0
   -9.0948    0.6455   -4.0343 Cl  0  0  0  0  0  0  0  0  0  0  0  0
   -7.4924    0.7115   -1.8679 C   0  0  0  0  0  0  0  0  0  0  0  0
   -4.2721   -0.9715   -0.1788 C   0  0  0  0  0  0  0  0  0  0  0  0
   -2.7525   -0.9197   -0.2595 C   0  0  0  0  0  0  0  0  0  0  0  0
    1.5874   -0.3055    0.4350 C   0  0  0  0  0  0  0  0  0  0  0  0
    2.4979   -0.8181   -0.4994 C   0  0  0  0  0  0  0  0  0  0  0  0
    3.7328   -0.1943   -0.7001 C   0  0  0  0  0  0  0  0  0  0  0  0
    4.0718    0.9335    0.0548 C   0  0  0  0  0  0  0  0  0  0  0  0
    5.3599    1.6398   -0.1372 C   0  0  0  0  0  0  0  0  0  0  0  0
    5.3664    2.8707   -0.1343 O   0  0  0  0  0  0  0  0  0  0  0  0
    6.6440    0.9259   -0.3527 C   0  0  0  0  0  0  0  0  0  0  0  0
    6.8515   -0.3654    0.1509 C   0  0  0  0  0  0  0  0  0  0  0  0
    8.0665   -1.0106   -0.0721 C   0  0  0  0  0  0  0  0  0  0  0  0
    8.2103   -2.2692    0.4308 O   0  0  0  0  0  0  0  0  0  0  0  0
    9.0893   -0.3914   -0.7781 C   0  0  0  0  0  0  0  0  0  0  0  0
    8.8905    0.9007   -1.2536 C   0  0  0  0  0  0  0  0  0  0  0  0
    9.8885    1.4989   -1.9205 F   0  0  0  0  0  0  0  0  0  0  0  0
    7.6853    1.5700   -1.0384 C   0  0  0  0  0  0  0  0  0  0  0  0
    7.5716    2.8504   -1.5157 O   0  0  0  0  0  0  0  0  0  0  0  0
    3.1620    1.4527    0.9842 C   0  0  0  0  0  0  0  0  0  0  0  0
    1.9263    0.8293    1.1829 C   0  0  0  0  0  0  0  0  0  0  0  0
   -0.6918    0.7681    0.9631 H   0  0  0  0  0  0  0  0  0  0  0  0
   -2.0099   -1.8097    1.5523 H   0  0  0  0  0  0  0  0  0  0  0  0
   -3.5836   -0.6948    2.7083 H   0  0  0  0  0  0  0  0  0  0  0  0
   -2.3665    0.5701    2.8222 H   0  0  0  0  0  0  0  0  0  0  0  0
   -4.5485    1.4939    2.1186 H   0  0  0  0  0  0  0  0  0  0  0  0
   -3.3868    1.6892    0.8024 H   0  0  0  0  0  0  0  0  0  0  0  0
   -7.1015   -1.6263    0.5834 H   0  0  0  0  0  0  0  0  0  0  0  0
   -8.7758   -2.7571   -0.8863 H   0  0  0  0  0  0  0  0  0  0  0  0
   -7.1737    1.7030   -2.1677 H   0  0  0  0  0  0  0  0  0  0  0  0
   -4.6851   -1.0725   -1.1871 H   0  0  0  0  0  0  0  0  0  0  0  0
   -4.5893   -1.8400    0.4094 H   0  0  0  0  0  0  0  0  0  0  0  0
   -2.3729   -1.8144   -0.7670 H   0  0  0  0  0  0  0  0  0  0  0  0
   -2.4570   -0.0637   -0.8812 H   0  0  0  0  0  0  0  0  0  0  0  0
    2.2407   -1.7023   -1.0811 H   0  0  0  0  0  0  0  0  0  0  0  0
    4.4069   -0.5931   -1.4543 H   0  0  0  0  0  0  0  0  0  0  0  0
    6.0903   -0.8808    0.7307 H   0  0  0  0  0  0  0  0  0  0  0  0
    9.1038   -2.5966    0.2282 H   0  0  0  0  0  0  0  0  0  0  0  0
   10.0407   -0.8772   -0.9626 H   0  0  0  0  0  0  0  0  0  0  0  0
    6.7656    3.2535   -1.1211 H   0  0  0  0  0  0  0  0  0  0  0  0
    3.4180    2.3398    1.5616 H   0  0  0  0  0  0  0  0  0  0  0  0
    1.2550    1.2275    1.9388 H   0  0  0  0  0  0  0  0  0  0  0  0
  1  2  2  0
  2  3  1  0
  3  4  1  0
  4  5  1  0
  5  6  1  0
  6  7  1  0
  7  8  1  0
  8  9  2  0
  8 10  1  0
 10 11  2  0
 11 12  1  0
 12 13  2  0
 13 14  1  0
 14 15  1  0
 14 16  2  0
  7 17  1  0
 17 18  1  0
  2 19  1  0
 19 20  2  0
 20 21  1  0
 21 22  2  0
 22 23  1  0
 23 24  2  0
 23 25  1  0
 25 26  2  0
 26 27  1  0
 27 28  1  0
 27 29  2  0
 29 30  1  0
 30 31  1  0
 30 32  2  0
 32 33  1  0
 22 34  1  0
 34 35  2  0
 18  4  1  0
 35 19  1  0
 16 10  1  0
 32 25  1  0
  3 36  1  0
  4 37  1  0
  5 38  1  0
  5 39  1  0
  6 40  1  0
  6 41  1  0
 11 42  1  0
 12 43  1  0
 16 44  1  0
 17 45  1  0
 17 46  1  0
 18 47  1  0
 18 48  1  0
 20 49  1  0
 21 50  1  0
 26 51  1  0
 28 52  1  0
 29 53  1  0
 33 54  1  0
 34 55  1  0
 35 56  1  0
M  END
$$$$
