
     RDKit          3D

 59 62  0  0  0  0  0  0  0  0999 V2000
   -3.8651   -3.2692   -1.0077 C   0  0  0  0  0  0  0  0  0  0  0  0
   -3.8148   -2.1689    0.0565 C   0  0  0  0  0  0  0  0  0  0  0  0
   -2.3994   -1.6096    0.2587 C   0  0  0  0  0  0  0  0  0  0  0  0
   -1.9634   -0.7126   -0.9095 C   0  0  2  0  0  0  0  0  0  0  0  0
   -0.6593   -0.1137   -0.6462 N   0  0  0  0  0  0  0  0  0  0  0  0
    0.5040   -0.8260   -0.8655 C   0  0  0  0  0  0  0  0  0  0  0  0
    0.5297   -1.9447   -1.3648 O   0  0  0  0  0  0  0  0  0  0  0  0
    1.7704   -0.1769   -0.4277 C   0  0  0  0  0  0  0  0  0  0  0  0
    2.8496   -0.9977   -0.0712 C   0  0  0  0  0  0  0  0  0  0  0  0
    4.0620   -0.4346    0.3381 C   0  0  0  0  0  0  0  0  0  0  0  0
    4.2066    0.9567    0.3676 C   0  0  0  0  0  0  0  0  0  0  0  0
    5.4666    1.5991    0.8102 C   0  0  0  0  0  0  0  0  0  0  0  0
    5.4030    2.6000    1.5238 O   0  0  0  0  0  0  0  0  0  0  0  0
    6.8074    1.0771    0.4436 C   0  0  0  0  0  0  0  0  0  0  0  0
    7.0073    0.3556   -0.7408 C   0  0  0  0  0  0  0  0  0  0  0  0
    8.2771   -0.1247   -1.0549 C   0  0  0  0  0  0  0  0  0  0  0  0
    8.4127   -0.8285   -2.2139 O   0  0  0  0  0  0  0  0  0  0  0  0
    9.3600    0.1084   -0.2179 C   0  0  0  0  0  0  0  0  0  0  0  0
    9.1642    0.8491    0.9431 C   0  0  0  0  0  0  0  0  0  0  0  0
   10.2180    1.0865    1.7375 F   0  0  0  0  0  0  0  0  0  0  0  0
    7.9044    1.3460    1.2763 C   0  0  0  0  0  0  0  0  0  0  0  0
    7.7936    2.0896    2.4229 O   0  0  0  0  0  0  0  0  0  0  0  0
    3.1276    1.7799    0.0213 C   0  0  0  0  0  0  0  0  0  0  0  0
    1.9145    1.2160   -0.3855 C   0  0  0  0  0  0  0  0  0  0  0  0
   -3.0052    0.3785   -1.1775 C   0  0  0  0  0  0  0  0  0  0  0  0
   -4.3878   -0.2323   -1.3918 C   0  0  0  0  0  0  0  0  0  0  0  0
   -4.7540   -1.0735   -0.2460 N   0  0  0  0  0  0  0  0  0  0  0  0
   -5.5287   -0.5802    0.8129 C   0  0  0  0  0  0  0  0  0  0  0  0
   -5.3990   -0.9436    1.9794 O   0  0  0  0  0  0  0  0  0  0  0  0
   -6.5868    0.4129    0.5247 C   0  0  0  0  0  0  0  0  0  0  0  0
   -7.4937    0.2080   -0.5137 C   0  0  0  0  0  0  0  0  0  0  0  0
   -8.4736    1.1631   -0.7038 C   0  0  0  0  0  0  0  0  0  0  0  0
   -8.6028    2.2665    0.0640 N   0  0  0  0  0  0  0  0  0  0  0  0
   -7.7296    2.4157    1.0842 C   0  0  0  0  0  0  0  0  0  0  0  0
   -6.7132    1.5218    1.3578 C   0  0  0  0  0  0  0  0  0  0  0  0
   -4.8868   -3.6497   -1.1149 H   0  0  0  0  0  0  0  0  0  0  0  0
   -3.5405   -2.9223   -1.9930 H   0  0  0  0  0  0  0  0  0  0  0  0
   -3.2212   -4.1082   -0.7219 H   0  0  0  0  0  0  0  0  0  0  0  0
   -4.1188   -2.6469    0.9962 H   0  0  0  0  0  0  0  0  0  0  0  0
   -1.6852   -2.4291    0.4024 H   0  0  0  0  0  0  0  0  0  0  0  0
   -2.3788   -1.0199    1.1853 H   0  0  0  0  0  0  0  0  0  0  0  0
   -1.8622   -1.3268   -1.8128 H   0  0  0  0  0  0  0  0  0  0  0  0
   -0.6261    0.6528    0.0133 H   0  0  0  0  0  0  0  0  0  0  0  0
    2.7428   -2.0818   -0.1030 H   0  0  0  0  0  0  0  0  0  0  0  0
    4.8717   -1.0943    0.6410 H   0  0  0  0  0  0  0  0  0  0  0  0
    6.1956    0.1692   -1.4392 H   0  0  0  0  0  0  0  0  0  0  0  0
    9.3439   -1.0867   -2.3267 H   0  0  0  0  0  0  0  0  0  0  0  0
   10.3547   -0.2583   -0.4437 H   0  0  0  0  0  0  0  0  0  0  0  0
    6.9147    2.5312    2.4172 H   0  0  0  0  0  0  0  0  0  0  0  0
    3.2330    2.8632    0.0603 H   0  0  0  0  0  0  0  0  0  0  0  0
    1.1051    1.8752   -0.6870 H   0  0  0  0  0  0  0  0  0  0  0  0
   -3.0388    1.0751   -0.3297 H   0  0  0  0  0  0  0  0  0  0  0  0
   -2.7193    0.9670   -2.0571 H   0  0  0  0  0  0  0  0  0  0  0  0
   -4.4058   -0.8516   -2.2945 H   0  0  0  0  0  0  0  0  0  0  0  0
   -5.1019    0.5792   -1.5448 H   0  0  0  0  0  0  0  0  0  0  0  0
   -7.4454   -0.6707   -1.1456 H   0  0  0  0  0  0  0  0  0  0  0  0
   -9.2084    1.0639   -1.4975 H   0  0  0  0  0  0  0  0  0  0  0  0
   -7.8796    3.2999    1.6972 H   0  0  0  0  0  0  0  0  0  0  0  0
   -6.0452    1.6759    2.1978 H   0  0  0  0  0  0  0  0  0  0  0  0
  1  2  1  0
  2  3  1  0
  3  4  1  0
  4  5  1  0
  5  6  1  0
  6  7  2  0
  6  8  1  0
  8  9  2  0
  9 10  1  0
 10 11  2  0
 11 12  1  0
 12 13  2  0
 12 14  1  0
 14 15  2  0
 15 16  1  0
 16 17  1  0
 16 18  2  0
 18 19  1  0
 19 20  1  0
 19 21  2  0
 21 22  1  0
 11 23  1  0
 23 24  2  0
  4 25  1  0
 25 26  1  0
 26 27  1  0
 27 28  1  0
 28 29  2  0
 28 30  1  0
 30 31  2  0
 31 32  1  0
 32 33  2  0
 33 34  1  0
 34 35  2  0
 27  2  1  0
 35 30  1  0
 24  8  1  0
 21 14  1  0
  1 36  1  0
  1 37  1  0
  1 38  1  0
  2 39  1  0
  3 40  1  0
  3 41  1  0
  4 42  1  6
  5 43  1  0
  9 44  1  0
 10 45  1  0
 15 46  1  0
 17 47  1  0
 18 48  1  0
 22 49  1  0
 23 50  1  0
 24 51  1  0
 25 52  1  0
 25 53  1  0
 26 54  1  0
 26 55  1  0
 31 56  1  0
 32 57  1  0
 34 58  1  0
 35 59  1  0
M  END
$$$$
