
     RDKit          3D

 61 64  0  0  0  0  0  0  0  0999 V2000
    7.1512   -2.5089    2.5856 C   0  0  0  0  0  0  0  0  0  0  0  0
    6.8502   -1.5901    1.5335 O   0  0  0  0  0  0  0  0  0  0  0  0
    7.8821   -0.7752    1.2032 C   0  0  0  0  0  0  0  0  0  0  0  0
    8.9858   -0.7681    1.7218 O   0  0  0  0  0  0  0  0  0  0  0  0
    7.4870    0.1450    0.1023 C   0  0  0  0  0  0  0  0  0  0  0  0
    8.4236    1.0890   -0.3309 C   0  0  0  0  0  0  0  0  0  0  0  0
    8.1011    1.9563   -1.3687 C   0  0  0  0  0  0  0  0  0  0  0  0
    9.0222    2.8406   -1.7777 F   0  0  0  0  0  0  0  0  0  0  0  0
    6.8510    1.9072   -1.9830 C   0  0  0  0  0  0  0  0  0  0  0  0
    6.6120    2.7753   -3.0166 O   0  0  0  0  0  0  0  0  0  0  0  0
    5.8915    0.9884   -1.5348 C   0  0  0  0  0  0  0  0  0  0  0  0
    4.5570    0.9536   -2.1869 C   0  0  0  0  0  0  0  0  0  0  0  0
    4.4662    1.3328   -3.3541 O   0  0  0  0  0  0  0  0  0  0  0  0
    3.3342    0.5007   -1.4834 C   0  0  0  0  0  0  0  0  0  0  0  0
    3.0854    0.8433   -0.1500 C   0  0  0  0  0  0  0  0  0  0  0  0
    1.9117    0.4062    0.4710 C   0  0  0  0  0  0  0  0  0  0  0  0
    0.9711   -0.3512   -0.2413 C   0  0  0  0  0  0  0  0  0  0  0  0
   -0.2577   -0.8000    0.4697 C   0  0  0  0  0  0  0  0  0  0  0  0
   -0.2407   -0.9472    1.6861 O   0  0  0  0  0  0  0  0  0  0  0  0
   -1.3819   -0.9968   -0.3087 N   0  0  0  0  0  0  0  0  0  0  0  0
   -2.6693   -1.3249    0.2993 C   0  0  0  0  0  0  0  0  0  0  0  0
   -3.5837   -2.0383   -0.7062 C   0  0  0  0  0  0  0  0  0  0  0  0
   -4.6271   -1.0986   -1.2942 C   0  0  0  0  0  0  0  0  0  0  0  0
   -5.4571   -0.4955   -0.2544 N   0  0  0  0  0  0  0  0  0  0  0  0
   -6.7046    0.0014   -0.6342 C   0  0  0  0  0  0  0  0  0  0  0  0
   -7.0833    0.0452   -1.8027 O   0  0  0  0  0  0  0  0  0  0  0  0
   -7.6319    0.4974    0.4057 C   0  0  0  0  0  0  0  0  0  0  0  0
   -7.9646   -0.2926    1.5047 C   0  0  0  0  0  0  0  0  0  0  0  0
   -8.8612    0.2288    2.4179 C   0  0  0  0  0  0  0  0  0  0  0  0
   -9.4315    1.4477    2.2961 N   0  0  0  0  0  0  0  0  0  0  0  0
   -9.1128    2.1725    1.2008 C   0  0  0  0  0  0  0  0  0  0  0  0
   -8.2291    1.7434    0.2298 C   0  0  0  0  0  0  0  0  0  0  0  0
   -4.8223   -0.2270    1.0402 C   0  0  0  0  0  0  0  0  0  0  0  0
   -3.3135   -0.0684    0.9033 C   0  0  0  0  0  0  0  0  0  0  0  0
    1.2183   -0.6830   -1.5795 C   0  0  0  0  0  0  0  0  0  0  0  0
    2.3932   -0.2482   -2.2010 C   0  0  0  0  0  0  0  0  0  0  0  0
    6.2218    0.0911   -0.5066 C   0  0  0  0  0  0  0  0  0  0  0  0
    7.3823   -1.9694    3.5090 H   0  0  0  0  0  0  0  0  0  0  0  0
    6.2658   -3.1272    2.7580 H   0  0  0  0  0  0  0  0  0  0  0  0
    7.9808   -3.1629    2.2988 H   0  0  0  0  0  0  0  0  0  0  0  0
    9.4100    1.1530    0.1223 H   0  0  0  0  0  0  0  0  0  0  0  0
    5.7965    2.4841   -3.4834 H   0  0  0  0  0  0  0  0  0  0  0  0
    3.7800    1.4595    0.4155 H   0  0  0  0  0  0  0  0  0  0  0  0
    1.7243    0.6656    1.5123 H   0  0  0  0  0  0  0  0  0  0  0  0
   -1.3906   -0.5977   -1.2384 H   0  0  0  0  0  0  0  0  0  0  0  0
   -2.4616   -2.0322    1.1130 H   0  0  0  0  0  0  0  0  0  0  0  0
   -3.0045   -2.5117   -1.5071 H   0  0  0  0  0  0  0  0  0  0  0  0
   -4.1107   -2.8463   -0.1817 H   0  0  0  0  0  0  0  0  0  0  0  0
   -5.2659   -1.6453   -1.9973 H   0  0  0  0  0  0  0  0  0  0  0  0
   -4.1482   -0.2850   -1.8524 H   0  0  0  0  0  0  0  0  0  0  0  0
   -7.5556   -1.2868    1.6375 H   0  0  0  0  0  0  0  0  0  0  0  0
   -9.1614   -0.3355    3.2964 H   0  0  0  0  0  0  0  0  0  0  0  0
   -9.6085    3.1360    1.1223 H   0  0  0  0  0  0  0  0  0  0  0  0
   -8.0138    2.3547   -0.6397 H   0  0  0  0  0  0  0  0  0  0  0  0
   -5.2434    0.6797    1.4850 H   0  0  0  0  0  0  0  0  0  0  0  0
   -5.0537   -1.0711    1.6997 H   0  0  0  0  0  0  0  0  0  0  0  0
   -2.8681    0.1470    1.8817 H   0  0  0  0  0  0  0  0  0  0  0  0
   -3.1027    0.8040    0.2697 H   0  0  0  0  0  0  0  0  0  0  0  0
    0.5226   -1.2966   -2.1457 H   0  0  0  0  0  0  0  0  0  0  0  0
    2.5770   -0.5013   -3.2441 H   0  0  0  0  0  0  0  0  0  0  0  0
    5.5050   -0.6622   -0.1879 H   0  0  0  0  0  0  0  0  0  0  0  0
  1  2  1  0
  2  3  1  0
  3  4  2  0
  3  5  1  0
  5  6  2  0
  6  7  1  0
  7  8  1  0
  7  9  2  0
  9 10  1  0
  9 11  1  0
 11 12  1  0
 12 13  2  0
 12 14  1  0
 14 15  2  0
 15 16  1  0
 16 17  2  0
 17 18  1  0
 18 19  2  0
 18 20  1  0
 20 21  1  0
 21 22  1  0
 22 23  1  0
 23 24  1  0
 24 25  1  0
 25 26  2  0
 25 27  1  0
 27 28  2  0
 28 29  1  0
 29 30  2  0
 30 31  1  0
 31 32  2  0
 24 33  1  0
 33 34  1  0
 17 35  1  0
 35 36  2  0
 11 37  2  0
 37  5  1  0
 36 14  1  0
 34 21  1  0
 32 27  1  0
  1 38  1  0
  1 39  1  0
  1 40  1  0
  6 41  1  0
 10 42  1  0
 15 43  1  0
 16 44  1  0
 20 45  1  0
 21 46  1  0
 22 47  1  0
 22 48  1  0
 23 49  1  0
 23 50  1  0
 28 51  1  0
 29 52  1  0
 31 53  1  0
 32 54  1  0
 33 55  1  0
 33 56  1  0
 34 57  1  0
 34 58  1  0
 35 59  1  0
 36 60  1  0
 37 61  1  0
M  END
$$$$
