
     RDKit          3D

 59 62  0  0  0  0  0  0  0  0999 V2000
   -6.5759    0.8884   -5.5273 C   0  0  0  0  0  0  0  0  0  0  0  0
   -5.8303    0.8495   -4.3161 O   0  0  0  0  0  0  0  0  0  0  0  0
   -6.5034    0.5067   -3.1746 C   0  0  0  0  0  0  0  0  0  0  0  0
   -7.8607    0.1981   -3.0991 C   0  0  0  0  0  0  0  0  0  0  0  0
   -8.4288   -0.1151   -1.8656 C   0  0  0  0  0  0  0  0  0  0  0  0
   -9.7406   -0.3880   -1.8164 F   0  0  0  0  0  0  0  0  0  0  0  0
   -7.6620   -0.1383   -0.7017 C   0  0  0  0  0  0  0  0  0  0  0  0
   -8.2975   -0.4275    0.4784 O   0  0  0  0  0  0  0  0  0  0  0  0
   -6.2900    0.1296   -0.7711 C   0  0  0  0  0  0  0  0  0  0  0  0
   -5.4780    0.0829    0.4636 C   0  0  0  0  0  0  0  0  0  0  0  0
   -6.0324    0.3697    1.5255 O   0  0  0  0  0  0  0  0  0  0  0  0
   -4.0568   -0.3380    0.4868 C   0  0  0  0  0  0  0  0  0  0  0  0
   -3.1979    0.2731    1.4093 C   0  0  0  0  0  0  0  0  0  0  0  0
   -1.8559   -0.1122    1.4851 C   0  0  0  0  0  0  0  0  0  0  0  0
   -1.3679   -1.1172    0.6403 C   0  0  0  0  0  0  0  0  0  0  0  0
    0.0516   -1.5651    0.6856 C   0  0  0  0  0  0  0  0  0  0  0  0
    0.3490   -2.7042    0.3454 O   0  0  0  0  0  0  0  0  0  0  0  0
    0.9788   -0.6232    1.0883 N   0  0  0  0  0  0  0  0  0  0  0  0
    2.4075   -0.9081    1.0322 C   0  0  0  0  0  0  0  0  0  0  0  0
    3.1670   -0.0147    2.0123 C   0  0  0  0  0  0  0  0  0  0  0  0
    4.6668   -0.2779    1.9452 C   0  0  0  0  0  0  0  0  0  0  0  0
    5.1746   -0.1923    0.5742 N   0  0  0  0  0  0  0  0  0  0  0  0
    6.4409    0.2810    0.2301 C   0  0  0  0  0  0  0  0  0  0  0  0
    6.9033    0.2677   -0.9063 O   0  0  0  0  0  0  0  0  0  0  0  0
    7.2911    0.8554    1.2829 C   0  0  0  0  0  0  0  0  0  0  0  0
    7.9609    0.0182    2.1721 C   0  0  0  0  0  0  0  0  0  0  0  0
    8.7550    0.6198    3.1290 C   0  0  0  0  0  0  0  0  0  0  0  0
    8.9109    1.9566    3.2380 N   0  0  0  0  0  0  0  0  0  0  0  0
    8.2650    2.7271    2.3352 C   0  0  0  0  0  0  0  0  0  0  0  0
    8.4241    4.0545    2.4306 F   0  0  0  0  0  0  0  0  0  0  0  0
    7.4497    2.2341    1.3405 C   0  0  0  0  0  0  0  0  0  0  0  0
    4.4510   -0.9714   -0.4301 C   0  0  0  0  0  0  0  0  0  0  0  0
    2.9509   -0.7119   -0.3851 C   0  0  0  0  0  0  0  0  0  0  0  0
   -2.2386   -1.7536   -0.2545 C   0  0  0  0  0  0  0  0  0  0  0  0
   -3.5807   -1.3688   -0.3311 C   0  0  0  0  0  0  0  0  0  0  0  0
   -5.7300    0.4772   -2.0038 C   0  0  0  0  0  0  0  0  0  0  0  0
   -4.4329    0.8160   -2.0813 F   0  0  0  0  0  0  0  0  0  0  0  0
   -5.8918    1.1741   -6.3320 H   0  0  0  0  0  0  0  0  0  0  0  0
   -7.3676    1.6432   -5.4785 H   0  0  0  0  0  0  0  0  0  0  0  0
   -6.9837   -0.0983   -5.7707 H   0  0  0  0  0  0  0  0  0  0  0  0
   -8.5124    0.2023   -3.9653 H   0  0  0  0  0  0  0  0  0  0  0  0
   -7.6997   -0.1826    1.2210 H   0  0  0  0  0  0  0  0  0  0  0  0
   -3.5750    1.0452    2.0782 H   0  0  0  0  0  0  0  0  0  0  0  0
   -1.2176    0.3576    2.2283 H   0  0  0  0  0  0  0  0  0  0  0  0
    0.6968    0.3486    1.0842 H   0  0  0  0  0  0  0  0  0  0  0  0
    2.5502   -1.9568    1.3245 H   0  0  0  0  0  0  0  0  0  0  0  0
    2.9725    1.0405    1.7783 H   0  0  0  0  0  0  0  0  0  0  0  0
    2.8075   -0.1801    3.0350 H   0  0  0  0  0  0  0  0  0  0  0  0
    5.1749    0.4376    2.5967 H   0  0  0  0  0  0  0  0  0  0  0  0
    4.8981   -1.2839    2.3147 H   0  0  0  0  0  0  0  0  0  0  0  0
    7.8716   -1.0608    2.1148 H   0  0  0  0  0  0  0  0  0  0  0  0
    9.3059    0.0289    3.8564 H   0  0  0  0  0  0  0  0  0  0  0  0
    6.9631    2.9003    0.6399 H   0  0  0  0  0  0  0  0  0  0  0  0
    4.8256   -0.7525   -1.4354 H   0  0  0  0  0  0  0  0  0  0  0  0
    4.6619   -2.0290   -0.2304 H   0  0  0  0  0  0  0  0  0  0  0  0
    2.7467    0.3139   -0.7195 H   0  0  0  0  0  0  0  0  0  0  0  0
    2.4417   -1.3786   -1.0908 H   0  0  0  0  0  0  0  0  0  0  0  0
   -1.8714   -2.5555   -0.8937 H   0  0  0  0  0  0  0  0  0  0  0  0
   -4.2355   -1.8925   -1.0224 H   0  0  0  0  0  0  0  0  0  0  0  0
  1  2  1  0
  2  3  1  0
  3  4  2  0
  4  5  1  0
  5  6  1  0
  5  7  2  0
  7  8  1  0
  7  9  1  0
  9 10  1  0
 10 11  2  0
 10 12  1  0
 12 13  2  0
 13 14  1  0
 14 15  2  0
 15 16  1  0
 16 17  2  0
 16 18  1  0
 18 19  1  0
 19 20  1  0
 20 21  1  0
 21 22  1  0
 22 23  1  0
 23 24  2  0
 23 25  1  0
 25 26  2  0
 26 27  1  0
 27 28  2  0
 28 29  1  0
 29 30  1  0
 29 31  2  0
 22 32  1  0
 32 33  1  0
 15 34  1  0
 34 35  2  0
  9 36  2  0
 36 37  1  0
 36  3  1  0
 35 12  1  0
 33 19  1  0
 31 25  1  0
  1 38  1  0
  1 39  1  0
  1 40  1  0
  4 41  1  0
  8 42  1  0
 13 43  1  0
 14 44  1  0
 18 45  1  0
 19 46  1  0
 20 47  1  0
 20 48  1  0
 21 49  1  0
 21 50  1  0
 26 51  1  0
 27 52  1  0
 31 53  1  0
 32 54  1  0
 32 55  1  0
 33 56  1  0
 33 57  1  0
 34 58  1  0
 35 59  1  0
M  END
$$$$
