
     RDKit          3D

 53 56  0  0  0  0  0  0  0  0999 V2000
   -2.5819    1.3583   -1.5867 O   0  0  0  0  0  0  0  0  0  0  0  0
   -2.4216    1.2747   -0.3761 C   0  0  0  0  0  0  0  0  0  0  0  0
   -1.5311    0.4258    0.2479 N   0  0  0  0  0  0  0  0  0  0  0  0
   -0.5257   -0.3702   -0.4773 C   0  0  1  0  0  0  0  0  0  0  0  0
   -1.0708   -1.1815   -1.6704 C   0  0  0  0  0  0  0  0  0  0  0  0
   -2.1043   -2.2119   -1.2658 C   0  0  0  0  0  0  0  0  0  0  0  0
   -1.7158   -3.4091   -0.6437 C   0  0  0  0  0  0  0  0  0  0  0  0
   -2.6769   -4.3445   -0.2573 C   0  0  0  0  0  0  0  0  0  0  0  0
   -4.0223   -4.0832   -0.4879 C   0  0  0  0  0  0  0  0  0  0  0  0
   -4.9437   -4.9790   -0.1090 F   0  0  0  0  0  0  0  0  0  0  0  0
   -4.4265   -2.9057   -1.1039 C   0  0  0  0  0  0  0  0  0  0  0  0
   -3.4675   -1.9715   -1.4954 C   0  0  0  0  0  0  0  0  0  0  0  0
    0.6691    0.5356   -0.8846 C   0  0  0  0  0  0  0  0  0  0  0  0
    0.5778    1.7672   -0.8292 O   0  0  0  0  0  0  0  0  0  0  0  0
    1.8495   -0.0719   -1.3252 N   0  0  0  0  0  0  0  0  0  0  0  0
    2.9648    0.8227   -1.6796 C   0  0  0  0  0  0  0  0  0  0  0  0
    3.9514    0.7234   -0.5747 C   0  0  0  0  0  0  0  0  0  0  0  0
    4.9105    1.6249   -0.2207 N   0  0  0  0  0  0  0  0  0  0  0  0
    5.5670    1.1166    0.8857 C   0  0  0  0  0  0  0  0  0  0  0  0
    6.6936    1.8822    1.5043 C   0  0  0  0  0  0  0  0  0  0  0  0
    7.3138    1.2186    2.5097 F   0  0  0  0  0  0  0  0  0  0  0  0
    7.6441    2.1842    0.5779 F   0  0  0  0  0  0  0  0  0  0  0  0
    6.2669    3.0698    2.0100 F   0  0  0  0  0  0  0  0  0  0  0  0
    5.0396   -0.0480    1.2511 N   0  0  0  0  0  0  0  0  0  0  0  0
    4.0502   -0.2963    0.3425 C   0  0  0  0  0  0  0  0  0  0  0  0
    3.1035   -1.4490    0.3868 C   0  0  0  0  0  0  0  0  0  0  0  0
    2.2232   -1.3379    1.5107 O   0  0  0  0  0  0  0  0  0  0  0  0
    2.2593   -1.4499   -0.9233 C   0  0  0  0  0  0  0  0  0  0  0  0
   -3.2180    2.1481    0.5243 C   0  0  0  0  0  0  0  0  0  0  0  0
   -3.5874    1.7373    1.8053 C   0  0  0  0  0  0  0  0  0  0  0  0
   -4.3393    2.6106    2.5702 C   0  0  0  0  0  0  0  0  0  0  0  0
   -4.7332    3.8311    2.1477 N   0  0  0  0  0  0  0  0  0  0  0  0
   -4.3742    4.1929    0.8968 C   0  0  0  0  0  0  0  0  0  0  0  0
   -3.6288    3.3931    0.0509 C   0  0  0  0  0  0  0  0  0  0  0  0
   -1.2598    0.6861    1.1858 H   0  0  0  0  0  0  0  0  0  0  0  0
   -0.1583   -1.0563    0.2929 H   0  0  0  0  0  0  0  0  0  0  0  0
   -1.4771   -0.5268   -2.4495 H   0  0  0  0  0  0  0  0  0  0  0  0
   -0.2600   -1.7137   -2.1833 H   0  0  0  0  0  0  0  0  0  0  0  0
   -0.6658   -3.6213   -0.4553 H   0  0  0  0  0  0  0  0  0  0  0  0
   -2.3862   -5.2727    0.2230 H   0  0  0  0  0  0  0  0  0  0  0  0
   -5.4819   -2.7196   -1.2731 H   0  0  0  0  0  0  0  0  0  0  0  0
   -3.7871   -1.0477   -1.9748 H   0  0  0  0  0  0  0  0  0  0  0  0
    2.6407    1.8553   -1.8417 H   0  0  0  0  0  0  0  0  0  0  0  0
    3.4040    0.4475   -2.6109 H   0  0  0  0  0  0  0  0  0  0  0  0
    5.1086    2.5128   -0.6661 H   0  0  0  0  0  0  0  0  0  0  0  0
    3.6435   -2.3963    0.4810 H   0  0  0  0  0  0  0  0  0  0  0  0
    2.7909   -1.0176    2.2401 H   0  0  0  0  0  0  0  0  0  0  0  0
    2.8583   -1.8479   -1.7519 H   0  0  0  0  0  0  0  0  0  0  0  0
    1.3907   -2.0966   -0.7978 H   0  0  0  0  0  0  0  0  0  0  0  0
   -3.3290    0.7594    2.1936 H   0  0  0  0  0  0  0  0  0  0  0  0
   -4.6609    2.3437    3.5733 H   0  0  0  0  0  0  0  0  0  0  0  0
   -4.7156    5.1751    0.5827 H   0  0  0  0  0  0  0  0  0  0  0  0
   -3.3702    3.7292   -0.9476 H   0  0  0  0  0  0  0  0  0  0  0  0
  1  2  2  0
  2  3  1  0
  3  4  1  0
  4  5  1  0
  5  6  1  0
  6  7  2  0
  7  8  1  0
  8  9  2  0
  9 10  1  0
  9 11  1  0
 11 12  2  0
  4 13  1  0
 13 14  2  0
 13 15  1  0
 15 16  1  0
 16 17  1  0
 17 18  1  0
 18 19  1  0
 19 20  1  0
 20 21  1  0
 20 22  1  0
 20 23  1  0
 19 24  2  0
 24 25  1  0
 25 26  1  0
 26 27  1  0
 26 28  1  0
  2 29  1  0
 29 30  2  0
 30 31  1  0
 31 32  2  0
 32 33  1  0
 33 34  2  0
 12  6  1  0
 28 15  1  0
 34 29  1  0
 25 17  2  0
  3 35  1  0
  4 36  1  1
  5 37  1  0
  5 38  1  0
  7 39  1  0
  8 40  1  0
 11 41  1  0
 12 42  1  0
 16 43  1  0
 16 44  1  0
 18 45  1  0
 26 46  1  0
 27 47  1  0
 28 48  1  0
 28 49  1  0
 30 50  1  0
 31 51  1  0
 33 52  1  0
 34 53  1  0
M  END
$$$$
