
     RDKit          3D

 56 58  0  0  0  0  0  0  0  0999 V2000
    8.0730    0.0057    1.5447 C   0  0  0  0  0  0  0  0  0  0  0  0
    6.7489    0.6605    1.8895 C   0  0  0  0  0  0  0  0  0  0  0  0
    5.7069   -0.2936    1.6625 O   0  0  0  0  0  0  0  0  0  0  0  0
    4.4691    0.2847    1.7453 C   0  0  0  0  0  0  0  0  0  0  0  0
    3.4475    0.0681    0.8930 C   0  0  0  0  0  0  0  0  0  0  0  0
    2.2175    0.8282    1.1467 C   0  0  0  0  0  0  0  0  0  0  0  0
    1.1787    0.7814    0.2900 C   0  0  0  0  0  0  0  0  0  0  0  0
    0.0204    1.6880    0.5770 C   0  0  0  0  0  0  0  0  0  0  0  0
    0.1712    2.6797    1.2825 O   0  0  0  0  0  0  0  0  0  0  0  0
   -1.1610    1.2994    0.0008 N   0  0  0  0  0  0  0  0  0  0  0  0
   -2.3808    2.0123   -0.0239 C   0  0  0  0  0  0  0  0  0  0  0  0
   -2.5444    3.3282    0.3959 C   0  0  0  0  0  0  0  0  0  0  0  0
   -3.7061    4.0191    0.2824 N   0  0  0  0  0  0  0  0  0  0  0  0
   -4.7452    3.3677   -0.2757 C   0  0  0  0  0  0  0  0  0  0  0  0
   -4.6876    2.0560   -0.7187 C   0  0  0  0  0  0  0  0  0  0  0  0
   -3.4907    1.3445   -0.5849 C   0  0  0  0  0  0  0  0  0  0  0  0
   -3.3779   -0.0119   -0.9531 N   0  0  0  0  0  0  0  0  0  0  0  0
   -3.9428   -0.4045   -2.2638 C   0  0  0  0  0  0  0  0  0  0  0  0
   -5.1287   -1.3817   -2.1347 C   0  0  0  0  0  0  0  0  0  0  0  0
   -4.8700   -2.6004   -1.3475 N   0  0  0  0  0  0  0  0  0  0  0  0
   -3.7147   -2.4345   -0.4464 C   0  0  0  0  0  0  0  0  0  0  0  0
   -3.5457   -1.0090    0.1554 C   0  0  0  0  0  0  0  0  0  0  0  0
   -4.6980   -0.6945    1.1186 C   0  0  0  0  0  0  0  0  0  0  0  0
    1.2051   -0.0536   -0.9623 C   0  0  0  0  0  0  0  0  0  0  0  0
    2.4760   -0.8364   -1.1506 C   0  0  0  0  0  0  0  0  0  0  0  0
    3.5107   -0.8061   -0.2879 C   0  0  0  0  0  0  0  0  0  0  0  0
    4.6496   -1.6921   -0.6668 C   0  0  0  0  0  0  0  0  0  0  0  0
    5.0337   -2.5917    0.2795 N   0  0  0  0  0  0  0  0  0  0  0  0
    5.1570   -1.6817   -1.7818 O   0  0  0  0  0  0  0  0  0  0  0  0
    8.9011    0.7068    1.6765 H   0  0  0  0  0  0  0  0  0  0  0  0
    8.0698   -0.3467    0.5078 H   0  0  0  0  0  0  0  0  0  0  0  0
    8.2468   -0.8703    2.1774 H   0  0  0  0  0  0  0  0  0  0  0  0
    6.7483    0.9648    2.9435 H   0  0  0  0  0  0  0  0  0  0  0  0
    6.6022    1.5438    1.2551 H   0  0  0  0  0  0  0  0  0  0  0  0
    4.3908    0.9559    2.5950 H   0  0  0  0  0  0  0  0  0  0  0  0
    2.1781    1.4704    2.0241 H   0  0  0  0  0  0  0  0  0  0  0  0
   -1.2424    0.4022   -0.4617 H   0  0  0  0  0  0  0  0  0  0  0  0
   -1.7337    3.9064    0.8262 H   0  0  0  0  0  0  0  0  0  0  0  0
   -5.6632    3.9435   -0.3532 H   0  0  0  0  0  0  0  0  0  0  0  0
   -5.5788    1.5953   -1.1265 H   0  0  0  0  0  0  0  0  0  0  0  0
   -3.1419   -0.9022   -2.8256 H   0  0  0  0  0  0  0  0  0  0  0  0
   -4.2355    0.4631   -2.8679 H   0  0  0  0  0  0  0  0  0  0  0  0
   -5.4636   -1.6760   -3.1360 H   0  0  0  0  0  0  0  0  0  0  0  0
   -5.9742   -0.8588   -1.6761 H   0  0  0  0  0  0  0  0  0  0  0  0
   -4.6846   -3.3843   -1.9738 H   0  0  0  0  0  0  0  0  0  0  0  0
   -3.8005   -3.1722    0.3604 H   0  0  0  0  0  0  0  0  0  0  0  0
   -2.8020   -2.6877   -1.0052 H   0  0  0  0  0  0  0  0  0  0  0  0
   -2.6178   -1.0193    0.7416 H   0  0  0  0  0  0  0  0  0  0  0  0
   -5.6536   -0.5698    0.6036 H   0  0  0  0  0  0  0  0  0  0  0  0
   -4.5034    0.2222    1.6848 H   0  0  0  0  0  0  0  0  0  0  0  0
   -4.8155   -1.4997    1.8520 H   0  0  0  0  0  0  0  0  0  0  0  0
    1.0652    0.5962   -1.8340 H   0  0  0  0  0  0  0  0  0  0  0  0
    0.3836   -0.7789   -0.9468 H   0  0  0  0  0  0  0  0  0  0  0  0
    2.5294   -1.4601   -2.0409 H   0  0  0  0  0  0  0  0  0  0  0  0
    4.8306   -2.3914    1.2507 H   0  0  0  0  0  0  0  0  0  0  0  0
    5.8933   -3.0848    0.0830 H   0  0  0  0  0  0  0  0  0  0  0  0
  1  2  1  0
  2  3  1  0
  3  4  1  0
  4  5  2  3
  5  6  1  0
  6  7  2  0
  7  8  1  0
  8  9  2  0
  8 10  1  0
 10 11  1  0
 11 12  2  0
 12 13  1  0
 13 14  2  0
 14 15  1  0
 15 16  2  0
 16 17  1  0
 17 18  1  0
 18 19  1  0
 19 20  1  0
 20 21  1  0
 21 22  1  0
 22 23  1  0
  7 24  1  0
 24 25  1  0
 25 26  2  0
 26 27  1  0
 27 28  1  0
 27 29  2  0
 26  5  1  0
 16 11  1  0
 22 17  1  0
  1 30  1  0
  1 31  1  0
  1 32  1  0
  2 33  1  0
  2 34  1  0
  4 35  1  0
  6 36  1  0
 10 37  1  0
 12 38  1  0
 14 39  1  0
 15 40  1  0
 18 41  1  0
 18 42  1  0
 19 43  1  0
 19 44  1  0
 20 45  1  0
 21 46  1  0
 21 47  1  0
 22 48  1  0
 23 49  1  0
 23 50  1  0
 23 51  1  0
 24 52  1  0
 24 53  1  0
 25 54  1  0
 28 55  1  0
 28 56  1  0
M  END
$$$$
