
     RDKit          3D

 30 31  0  0  0  0  0  0  0  0999 V2000
   -5.1034    0.7588    0.1394 N   0  0  0  0  0  0  0  0  0  0  0  0
   -4.6108   -0.1434   -0.9053 C   0  0  0  0  0  0  0  0  0  0  0  0
   -3.3814   -0.9489   -0.4377 C   0  0  0  0  0  0  0  0  0  0  0  0
   -2.3111   -0.0307   -0.0531 N   0  0  0  0  0  0  0  0  0  0  0  0
   -1.1238   -0.6493    0.3042 C   0  0  0  0  0  0  0  0  0  0  0  0
   -1.1295   -1.8484    0.9049 N   0  0  0  0  0  0  0  0  0  0  0  0
    0.0669   -2.3727    1.2408 C   0  0  0  0  0  0  0  0  0  0  0  0
    1.2582   -1.7470    0.9874 C   0  0  0  0  0  0  0  0  0  0  0  0
    2.4224   -2.2913    1.3622 F   0  0  0  0  0  0  0  0  0  0  0  0
    1.1778   -0.5284    0.3462 C   0  0  0  0  0  0  0  0  0  0  0  0
    2.3625    0.2771    0.0198 C   0  0  0  0  0  0  0  0  0  0  0  0
    2.5322    1.5113    0.6750 C   0  0  0  0  0  0  0  0  0  0  0  0
    3.6391    2.3192    0.4186 C   0  0  0  0  0  0  0  0  0  0  0  0
    4.6009    1.9137   -0.5066 C   0  0  0  0  0  0  0  0  0  0  0  0
    5.9433    2.9756   -0.7605 Cl  0  0  0  0  0  0  0  0  0  0  0  0
    4.4559    0.6972   -1.1898 C   0  0  0  0  0  0  0  0  0  0  0  0
    5.6553    0.2085   -2.3513 Cl  0  0  0  0  0  0  0  0  0  0  0  0
    3.3335   -0.1172   -0.9292 C   0  0  0  0  0  0  0  0  0  0  0  0
    3.1114   -1.6048   -1.8120 Cl  0  0  0  0  0  0  0  0  0  0  0  0
   -0.0092    0.0349    0.0098 N   0  0  0  0  0  0  0  0  0  0  0  0
   -5.6238    1.5252   -0.2816 H   0  0  0  0  0  0  0  0  0  0  0  0
   -4.2914    1.1694    0.6081 H   0  0  0  0  0  0  0  0  0  0  0  0
   -5.4136   -0.8257   -1.2018 H   0  0  0  0  0  0  0  0  0  0  0  0
   -4.3362    0.4530   -1.7832 H   0  0  0  0  0  0  0  0  0  0  0  0
   -3.6724   -1.5816    0.4102 H   0  0  0  0  0  0  0  0  0  0  0  0
   -3.0535   -1.5985   -1.2587 H   0  0  0  0  0  0  0  0  0  0  0  0
   -2.0668    0.6636   -0.7508 H   0  0  0  0  0  0  0  0  0  0  0  0
    0.0373   -3.3355    1.7390 H   0  0  0  0  0  0  0  0  0  0  0  0
    1.7876    1.8494    1.3968 H   0  0  0  0  0  0  0  0  0  0  0  0
    3.7427    3.2663    0.9445 H   0  0  0  0  0  0  0  0  0  0  0  0
  1  2  1  0
  2  3  1  0
  3  4  1  0
  4  5  1  0
  5  6  2  0
  6  7  1  0
  7  8  2  0
  8  9  1  0
  8 10  1  0
 10 11  1  0
 11 12  2  0
 12 13  1  0
 13 14  2  0
 14 15  1  0
 14 16  1  0
 16 17  1  0
 16 18  2  0
 18 19  1  0
 10 20  2  0
 20  5  1  0
 18 11  1  0
  1 21  1  0
  1 22  1  0
  2 23  1  0
  2 24  1  0
  3 25  1  0
  3 26  1  0
  4 27  1  0
  7 28  1  0
 12 29  1  0
 13 30  1  0
M  END
$$$$
