
     RDKit          3D

 44 47  0  0  0  0  0  0  0  0999 V2000
   -5.4416    1.5982    2.1216 C   0  0  0  0  0  0  0  0  0  0  0  0
   -4.3466    1.2540    1.1098 C   0  0  0  0  0  0  0  0  0  0  0  0
   -4.4088    2.2054   -0.0849 C   0  0  0  0  0  0  0  0  0  0  0  0
   -4.4629   -0.1674    0.6512 C   0  0  0  0  0  0  0  0  0  0  0  0
   -5.5806   -0.8570    0.5128 N   0  0  0  0  0  0  0  0  0  0  0  0
   -5.2640   -2.1191    0.0699 N   0  0  0  0  0  0  0  0  0  0  0  0
   -3.9592   -2.1803   -0.0654 C   0  0  0  0  0  0  0  0  0  0  0  0
   -3.0841   -3.2156   -0.4869 C   0  0  0  0  0  0  0  0  0  0  0  0
   -1.7580   -2.9839   -0.5369 C   0  0  0  0  0  0  0  0  0  0  0  0
   -1.1825   -1.6871   -0.1701 C   0  0  0  0  0  0  0  0  0  0  0  0
    0.2611   -1.4096   -0.2125 C   0  0  0  0  0  0  0  0  0  0  0  0
    1.1167   -1.9921    0.7261 C   0  0  0  0  0  0  0  0  0  0  0  0
    2.4912   -1.7329    0.6838 C   0  0  0  0  0  0  0  0  0  0  0  0
    3.0420   -0.8964   -0.2973 C   0  0  0  0  0  0  0  0  0  0  0  0
    4.4230   -0.6377   -0.2719 N   0  0  0  0  0  0  0  0  0  0  0  0
    5.1833    0.4524   -0.7239 C   0  0  0  0  0  0  0  0  0  0  0  0
    4.6677    1.7388   -0.8864 C   0  0  0  0  0  0  0  0  0  0  0  0
    5.4738    2.7674   -1.3754 C   0  0  0  0  0  0  0  0  0  0  0  0
    6.7875    2.4777   -1.7003 C   0  0  0  0  0  0  0  0  0  0  0  0
    7.3337    1.2524   -1.5706 N   0  0  0  0  0  0  0  0  0  0  0  0
    6.5197    0.2782   -1.0938 C   0  0  0  0  0  0  0  0  0  0  0  0
    2.1751   -0.3175   -1.2301 C   0  0  0  0  0  0  0  0  0  0  0  0
    0.7993   -0.5734   -1.1949 C   0  0  0  0  0  0  0  0  0  0  0  0
   -2.0239   -0.7114    0.2326 C   0  0  0  0  0  0  0  0  0  0  0  0
   -3.3949   -0.9628    0.2846 N   0  0  0  0  0  0  0  0  0  0  0  0
   -5.4033    0.9239    2.9845 H   0  0  0  0  0  0  0  0  0  0  0  0
   -5.3197    2.6223    2.4906 H   0  0  0  0  0  0  0  0  0  0  0  0
   -6.4413    1.5175    1.6797 H   0  0  0  0  0  0  0  0  0  0  0  0
   -3.3852    1.3965    1.6174 H   0  0  0  0  0  0  0  0  0  0  0  0
   -5.3591    2.1117   -0.6230 H   0  0  0  0  0  0  0  0  0  0  0  0
   -4.3055    3.2460    0.2408 H   0  0  0  0  0  0  0  0  0  0  0  0
   -3.6033    1.9970   -0.7978 H   0  0  0  0  0  0  0  0  0  0  0  0
   -3.5070   -4.1747   -0.7633 H   0  0  0  0  0  0  0  0  0  0  0  0
   -1.0778   -3.7663   -0.8631 H   0  0  0  0  0  0  0  0  0  0  0  0
    0.7225   -2.6443    1.5022 H   0  0  0  0  0  0  0  0  0  0  0  0
    3.1302   -2.1856    1.4383 H   0  0  0  0  0  0  0  0  0  0  0  0
    4.9716   -1.3755    0.1572 H   0  0  0  0  0  0  0  0  0  0  0  0
    3.6444    1.9655   -0.6029 H   0  0  0  0  0  0  0  0  0  0  0  0
    5.0841    3.7722   -1.4931 H   0  0  0  0  0  0  0  0  0  0  0  0
    7.4536    3.2457   -2.0827 H   0  0  0  0  0  0  0  0  0  0  0  0
    6.9934   -0.6972   -1.0219 H   0  0  0  0  0  0  0  0  0  0  0  0
    2.5641    0.3132   -2.0251 H   0  0  0  0  0  0  0  0  0  0  0  0
    0.1578   -0.1226   -1.9489 H   0  0  0  0  0  0  0  0  0  0  0  0
   -1.6863    0.2746    0.5258 H   0  0  0  0  0  0  0  0  0  0  0  0
  1  2  1  0
  2  3  1  0
  2  4  1  0
  4  5  2  0
  5  6  1  0
  6  7  2  0
  7  8  1  0
  8  9  2  0
  9 10  1  0
 10 11  1  0
 11 12  2  0
 12 13  1  0
 13 14  2  0
 14 15  1  0
 15 16  1  0
 16 17  2  0
 17 18  1  0
 18 19  2  0
 19 20  1  0
 20 21  2  0
 14 22  1  0
 22 23  2  0
 10 24  2  0
 24 25  1  0
 25  4  1  0
 25  7  1  0
 23 11  1  0
 21 16  1  0
  1 26  1  0
  1 27  1  0
  1 28  1  0
  2 29  1  0
  3 30  1  0
  3 31  1  0
  3 32  1  0
  8 33  1  0
  9 34  1  0
 12 35  1  0
 13 36  1  0
 15 37  1  0
 17 38  1  0
 18 39  1  0
 19 40  1  0
 21 41  1  0
 22 42  1  0
 23 43  1  0
 24 44  1  0
M  END
$$$$
