
     RDKit          3D

 52 54  0  0  0  0  0  0  0  0999 V2000
   -8.3097   -0.7930   -0.2457 C   0  0  0  0  0  0  0  0  0  0  0  0
   -7.5567    0.0695    0.7572 C   0  0  0  0  0  0  0  0  0  0  0  0
   -6.2390    0.6838    0.2485 C   0  0  2  0  0  0  0  0  0  0  0  0
   -6.5138    1.5093   -0.8984 O   0  0  0  0  0  0  0  0  0  0  0  0
   -5.1328   -0.3740   -0.0968 C   0  0  1  0  0  0  0  0  0  0  0  0
   -5.3600   -0.9685   -1.4247 N   0  0  0  0  0  0  0  0  0  0  0  0
   -3.6934    0.1421   -0.0033 C   0  0  0  0  0  0  0  0  0  0  0  0
   -3.3873    1.4819   -0.3102 C   0  0  0  0  0  0  0  0  0  0  0  0
   -2.0863    1.9760   -0.1917 C   0  0  0  0  0  0  0  0  0  0  0  0
   -1.0543    1.1351    0.2231 C   0  0  0  0  0  0  0  0  0  0  0  0
    0.3168    1.7024    0.3635 C   0  0  0  0  0  0  0  0  0  0  0  0
    0.4181    2.8741    0.7054 O   0  0  0  0  0  0  0  0  0  0  0  0
    1.3326    0.8297    0.0523 N   0  0  0  0  0  0  0  0  0  0  0  0
    2.6806    1.0704    0.1212 C   0  0  0  0  0  0  0  0  0  0  0  0
    3.5433    0.1621   -0.2690 N   0  0  0  0  0  0  0  0  0  0  0  0
    4.8407    0.6255   -0.0839 C   0  0  0  0  0  0  0  0  0  0  0  0
    5.9929   -0.1963   -0.4490 C   0  0  0  0  0  0  0  0  0  0  0  0
    5.8215   -1.2567   -1.3501 C   0  0  0  0  0  0  0  0  0  0  0  0
    6.9023   -2.0550   -1.7300 C   0  0  0  0  0  0  0  0  0  0  0  0
    8.1694   -1.8101   -1.2048 C   0  0  0  0  0  0  0  0  0  0  0  0
    8.3639   -0.7738   -0.2858 C   0  0  0  0  0  0  0  0  0  0  0  0
    9.7332   -0.4965    0.2617 C   0  0  0  0  0  0  0  0  0  0  0  0
    7.2740    0.0342    0.0778 C   0  0  0  0  0  0  0  0  0  0  0  0
    4.9189    1.9019    0.4405 C   0  0  0  0  0  0  0  0  0  0  0  0
    3.3435    2.5152    0.7247 S   0  0  0  0  0  0  0  0  0  0  0  0
   -1.3357   -0.2024    0.5160 C   0  0  0  0  0  0  0  0  0  0  0  0
   -2.6294   -0.7195    0.3487 C   0  0  0  0  0  0  0  0  0  0  0  0
   -2.8275   -2.0654    0.7109 N   0  0  0  0  0  0  0  0  0  0  0  0
   -7.7719   -1.7214   -0.4581 H   0  0  0  0  0  0  0  0  0  0  0  0
   -8.4811   -0.2615   -1.1868 H   0  0  0  0  0  0  0  0  0  0  0  0
   -9.2867   -1.0711    0.1637 H   0  0  0  0  0  0  0  0  0  0  0  0
   -8.2259    0.8897    1.0483 H   0  0  0  0  0  0  0  0  0  0  0  0
   -7.3630   -0.5163    1.6633 H   0  0  0  0  0  0  0  0  0  0  0  0
   -5.8661    1.3482    1.0385 H   0  0  0  0  0  0  0  0  0  0  0  0
   -7.2462    2.1031   -0.6580 H   0  0  0  0  0  0  0  0  0  0  0  0
   -5.2386   -1.1635    0.6564 H   0  0  0  0  0  0  0  0  0  0  0  0
   -4.4716   -1.2881   -1.8086 H   0  0  0  0  0  0  0  0  0  0  0  0
   -5.6591   -0.1976   -2.0306 H   0  0  0  0  0  0  0  0  0  0  0  0
   -4.1614    2.1692   -0.6447 H   0  0  0  0  0  0  0  0  0  0  0  0
   -1.8844    3.0209   -0.4207 H   0  0  0  0  0  0  0  0  0  0  0  0
    1.1221   -0.0793   -0.3341 H   0  0  0  0  0  0  0  0  0  0  0  0
    4.8393   -1.4630   -1.7712 H   0  0  0  0  0  0  0  0  0  0  0  0
    6.7531   -2.8669   -2.4371 H   0  0  0  0  0  0  0  0  0  0  0  0
    9.0039   -2.4359   -1.5134 H   0  0  0  0  0  0  0  0  0  0  0  0
    9.6741   -0.0174    1.2445 H   0  0  0  0  0  0  0  0  0  0  0  0
   10.2964   -1.4271    0.3883 H   0  0  0  0  0  0  0  0  0  0  0  0
   10.2822    0.1614   -0.4188 H   0  0  0  0  0  0  0  0  0  0  0  0
    7.4396    0.8379    0.7909 H   0  0  0  0  0  0  0  0  0  0  0  0
    5.7873    2.5035    0.6632 H   0  0  0  0  0  0  0  0  0  0  0  0
   -0.5562   -0.8680    0.8784 H   0  0  0  0  0  0  0  0  0  0  0  0
   -3.6603   -2.4776    0.2943 H   0  0  0  0  0  0  0  0  0  0  0  0
   -2.8512   -2.1812    1.7220 H   0  0  0  0  0  0  0  0  0  0  0  0
  1  2  1  0
  2  3  1  0
  3  4  1  0
  3  5  1  0
  5  6  1  0
  5  7  1  0
  7  8  2  0
  8  9  1  0
  9 10  2  0
 10 11  1  0
 11 12  2  0
 11 13  1  0
 13 14  1  0
 14 15  2  0
 15 16  1  0
 16 17  1  0
 17 18  2  0
 18 19  1  0
 19 20  2  0
 20 21  1  0
 21 22  1  0
 21 23  2  0
 16 24  2  0
 24 25  1  0
 10 26  1  0
 26 27  2  0
 27 28  1  0
 27  7  1  0
 25 14  1  0
 23 17  1  0
  1 29  1  0
  1 30  1  0
  1 31  1  0
  2 32  1  0
  2 33  1  0
  3 34  1  1
  4 35  1  0
  5 36  1  1
  6 37  1  0
  6 38  1  0
  8 39  1  0
  9 40  1  0
 13 41  1  0
 18 42  1  0
 19 43  1  0
 20 44  1  0
 22 45  1  0
 22 46  1  0
 22 47  1  0
 23 48  1  0
 24 49  1  0
 26 50  1  0
 28 51  1  0
 28 52  1  0
M  END
$$$$
