
     RDKit          3D

 42 45  0  0  0  0  0  0  0  0999 V2000
    4.9158    0.9216    0.0870 C   0  0  0  0  0  0  0  0  0  0  0  0
    3.7807    0.1474    0.6965 C   0  0  0  0  0  0  0  0  0  0  0  0
    2.5270    0.7785    0.8103 C   0  0  0  0  0  0  0  0  0  0  0  0
    1.4230    0.1294    1.3879 C   0  0  0  0  0  0  0  0  0  0  0  0
    0.0882    0.8327    1.4992 C   0  0  0  0  0  0  0  0  0  0  0  0
   -0.5222    1.0232    0.1999 N   0  0  0  0  0  0  0  0  0  0  0  0
   -0.5026    2.1680   -0.5710 C   0  0  0  0  0  0  0  0  0  0  0  0
   -0.9918    1.9634   -1.8001 C   0  0  0  0  0  0  0  0  0  0  0  0
   -1.1237    3.1727   -3.1757 Br  0  0  0  0  0  0  0  0  0  0  0  0
   -1.4032    0.5285   -1.9852 C   0  0  0  0  0  0  0  0  0  0  0  0
   -2.8632    0.3887   -2.0208 N   0  0  0  0  0  0  0  0  0  0  0  0
   -3.3095   -0.3615   -0.9474 C   0  0  0  0  0  0  0  0  0  0  0  0
   -4.7074   -0.7670   -0.8608 C   0  0  0  0  0  0  0  0  0  0  0  0
   -5.5527   -0.2283    0.2661 C   0  0  0  0  0  0  0  0  0  0  0  0
   -5.7940    0.2412   -1.1382 C   0  0  0  0  0  0  0  0  0  0  0  0
   -2.3126   -0.6362   -0.0906 C   0  0  0  0  0  0  0  0  0  0  0  0
   -0.9997   -0.1158   -0.5951 C   0  0  0  0  0  0  0  0  0  0  0  0
    1.5791   -1.1787    1.8568 C   0  0  0  0  0  0  0  0  0  0  0  0
    2.8110   -1.8245    1.7417 C   0  0  0  0  0  0  0  0  0  0  0  0
    3.9097   -1.1794    1.1504 C   0  0  0  0  0  0  0  0  0  0  0  0
    5.1607   -1.9766    1.0768 C   0  0  0  0  0  0  0  0  0  0  0  0
    5.4782   -2.8628    1.8493 O   0  0  0  0  0  0  0  0  0  0  0  0
    5.9158   -1.6918    0.0032 O   0  0  0  0  0  0  0  0  0  0  0  0
    4.6908    1.9933    0.0494 H   0  0  0  0  0  0  0  0  0  0  0  0
    5.1008    0.5851   -0.9373 H   0  0  0  0  0  0  0  0  0  0  0  0
    5.8253    0.8164    0.6866 H   0  0  0  0  0  0  0  0  0  0  0  0
    2.4027    1.7987    0.4468 H   0  0  0  0  0  0  0  0  0  0  0  0
   -0.5884    0.2601    2.1448 H   0  0  0  0  0  0  0  0  0  0  0  0
    0.2350    1.7961    2.0044 H   0  0  0  0  0  0  0  0  0  0  0  0
   -0.1166    3.0927   -0.1635 H   0  0  0  0  0  0  0  0  0  0  0  0
   -0.9145    0.0240   -2.8247 H   0  0  0  0  0  0  0  0  0  0  0  0
   -3.3048    0.1896   -2.9114 H   0  0  0  0  0  0  0  0  0  0  0  0
   -4.8968   -1.7910   -1.1697 H   0  0  0  0  0  0  0  0  0  0  0  0
   -6.2808   -0.8944    0.7130 H   0  0  0  0  0  0  0  0  0  0  0  0
   -5.1103    0.4775    0.9610 H   0  0  0  0  0  0  0  0  0  0  0  0
   -5.5116    1.2596   -1.3828 H   0  0  0  0  0  0  0  0  0  0  0  0
   -6.6870   -0.1041   -1.6453 H   0  0  0  0  0  0  0  0  0  0  0  0
   -2.4235   -1.2051    0.8185 H   0  0  0  0  0  0  0  0  0  0  0  0
   -0.2456   -0.8983   -0.7242 H   0  0  0  0  0  0  0  0  0  0  0  0
    0.7441   -1.7064    2.3125 H   0  0  0  0  0  0  0  0  0  0  0  0
    2.9120   -2.8437    2.1117 H   0  0  0  0  0  0  0  0  0  0  0  0
    6.6627   -2.3225    0.0697 H   0  0  0  0  0  0  0  0  0  0  0  0
  1  2  1  0
  2  3  2  0
  3  4  1  0
  4  5  1  0
  5  6  1  0
  6  7  1  0
  7  8  2  0
  8  9  1  0
  8 10  1  0
 10 11  1  0
 11 12  1  0
 12 13  1  0
 13 14  1  0
 14 15  1  0
 12 16  2  0
 16 17  1  0
  4 18  2  0
 18 19  1  0
 19 20  2  0
 20 21  1  0
 21 22  2  0
 21 23  1  0
 20  2  1  0
 17  6  1  0
 17 10  1  0
 15 13  1  0
  1 24  1  0
  1 25  1  0
  1 26  1  0
  3 27  1  0
  5 28  1  0
  5 29  1  0
  7 30  1  0
 10 31  1  0
 11 32  1  0
 13 33  1  0
 14 34  1  0
 14 35  1  0
 15 36  1  0
 15 37  1  0
 16 38  1  0
 17 39  1  0
 18 40  1  0
 19 41  1  0
 23 42  1  0
M  END
$$$$
