
     RDKit          3D

 41 43  0  0  0  0  0  0  0  0999 V2000
    4.7555   -1.6279    0.8718 O   0  0  0  0  0  0  0  0  0  0  0  0
    4.2770   -0.5288    0.6424 C   0  0  0  0  0  0  0  0  0  0  0  0
    4.7542    0.5624    1.2680 O   0  0  0  0  0  0  0  0  0  0  0  0
    3.2214   -0.2273   -0.3869 C   0  0  0  0  0  0  0  0  0  0  0  0
    2.2444    0.8857   -0.0130 C   0  0  0  0  0  0  0  0  0  0  0  0
    1.4590    0.7143    1.2978 C   0  0  0  0  0  0  0  0  0  0  0  0
    0.5495   -0.5266    1.4259 C   0  0  0  0  0  0  0  0  0  0  0  0
    1.4223   -1.6597    1.7081 O   0  0  0  0  0  0  0  0  0  0  0  0
    1.1948   -2.8527    1.0691 C   0  0  0  0  0  0  0  0  0  0  0  0
    0.2815   -3.0166    0.1155 C   0  0  0  0  0  0  0  0  0  0  0  0
   -0.0751   -4.1648   -0.6670 C   0  0  0  0  0  0  0  0  0  0  0  0
   -1.0525   -3.7268   -1.4695 C   0  0  0  0  0  0  0  0  0  0  0  0
   -1.3774   -2.3753   -1.2869 O   0  0  0  0  0  0  0  0  0  0  0  0
   -0.5385   -1.9120   -0.2893 C   0  0  0  0  0  0  0  0  0  0  0  0
   -0.4557   -0.7051    0.2848 C   0  0  0  0  0  0  0  0  0  0  0  0
   -1.3616    0.3976   -0.0936 C   0  0  0  0  0  0  0  0  0  0  0  0
   -1.5300    0.7517   -1.4407 C   0  0  0  0  0  0  0  0  0  0  0  0
   -2.3768    1.8029   -1.7994 C   0  0  0  0  0  0  0  0  0  0  0  0
   -2.5283    2.1341   -3.1185 O   0  0  0  0  0  0  0  0  0  0  0  0
   -3.0751    2.5302   -0.8317 C   0  0  0  0  0  0  0  0  0  0  0  0
   -3.8798    3.5457   -1.2786 O   0  0  0  0  0  0  0  0  0  0  0  0
   -2.9104    2.1826    0.5143 C   0  0  0  0  0  0  0  0  0  0  0  0
   -3.6117    2.9115    1.5736 N   0  0  0  0  0  0  0  0  0  0  0  0
   -4.4424    3.7675    1.2304 O   0  0  0  0  0  0  0  0  0  0  0  0
   -3.3346    2.6374    2.7496 O   0  0  0  0  0  0  0  0  0  0  0  0
   -2.0593    1.1221    0.8823 C   0  0  0  0  0  0  0  0  0  0  0  0
    5.4459    0.2047    1.8636 H   0  0  0  0  0  0  0  0  0  0  0  0
    2.6767   -1.1490   -0.6046 H   0  0  0  0  0  0  0  0  0  0  0  0
    3.7452    0.0517   -1.3089 H   0  0  0  0  0  0  0  0  0  0  0  0
    2.7987    1.8308    0.0563 H   0  0  0  0  0  0  0  0  0  0  0  0
    1.5426    1.0198   -0.8441 H   0  0  0  0  0  0  0  0  0  0  0  0
    0.8475    1.6160    1.4304 H   0  0  0  0  0  0  0  0  0  0  0  0
    2.1717    0.7109    2.1322 H   0  0  0  0  0  0  0  0  0  0  0  0
   -0.0284   -0.4060    2.3518 H   0  0  0  0  0  0  0  0  0  0  0  0
    1.8703   -3.6221    1.4176 H   0  0  0  0  0  0  0  0  0  0  0  0
    0.3513   -5.1511   -0.6133 H   0  0  0  0  0  0  0  0  0  0  0  0
   -1.6218   -4.2422   -2.2220 H   0  0  0  0  0  0  0  0  0  0  0  0
   -0.9890    0.2069   -2.2112 H   0  0  0  0  0  0  0  0  0  0  0  0
   -2.0386    1.5063   -3.6727 H   0  0  0  0  0  0  0  0  0  0  0  0
   -4.3685    3.9515   -0.5344 H   0  0  0  0  0  0  0  0  0  0  0  0
   -1.9542    0.8499    1.9314 H   0  0  0  0  0  0  0  0  0  0  0  0
  1  2  2  0
  2  3  1  0
  2  4  1  0
  4  5  1  0
  5  6  1  0
  6  7  1  0
  7  8  1  0
  8  9  1  0
  9 10  2  0
 10 11  1  0
 11 12  2  0
 12 13  1  0
 13 14  1  0
 14 15  2  0
 15 16  1  0
 16 17  2  0
 17 18  1  0
 18 19  1  0
 18 20  2  0
 20 21  1  0
 20 22  1  0
 22 23  1  0
 23 24  2  0
 23 25  1  0
 22 26  2  0
 15  7  1  0
 26 16  1  0
 14 10  1  0
  3 27  1  0
  4 28  1  0
  4 29  1  0
  5 30  1  0
  5 31  1  0
  6 32  1  0
  6 33  1  0
  7 34  1  0
  9 35  1  0
 11 36  1  0
 12 37  1  0
 17 38  1  0
 19 39  1  0
 21 40  1  0
 26 41  1  0
M  CHG  2  23   1  25  -1
M  END
$$$$
