
     RDKit          3D

 44 46  0  0  0  0  0  0  0  0999 V2000
    6.8463   -0.3920   -1.0815 C   0  0  0  0  0  0  0  0  0  0  0  0
    5.6552   -0.4961   -0.1747 C   0  0  0  0  0  0  0  0  0  0  0  0
    5.7789   -0.2335    1.1957 C   0  0  0  0  0  0  0  0  0  0  0  0
    4.6613   -0.3215    2.0232 C   0  0  0  0  0  0  0  0  0  0  0  0
    4.7531   -0.0923    3.3646 O   0  0  0  0  0  0  0  0  0  0  0  0
    3.4109   -0.6476    1.5116 C   0  0  0  0  0  0  0  0  0  0  0  0
    3.2711   -0.8715    0.1398 C   0  0  0  0  0  0  0  0  0  0  0  0
    1.9610   -1.2337   -0.4568 C   0  0  0  0  0  0  0  0  0  0  0  0
    1.9487   -2.1051   -1.3238 O   0  0  0  0  0  0  0  0  0  0  0  0
    0.6907   -0.5885   -0.0024 C   0  0  0  0  0  0  0  0  0  0  0  0
    0.7120    0.7414    0.4602 C   0  0  0  0  0  0  0  0  0  0  0  0
   -0.4477    1.3446    0.9510 C   0  0  0  0  0  0  0  0  0  0  0  0
   -1.6440    0.6368    0.9611 C   0  0  0  0  0  0  0  0  0  0  0  0
   -1.6797   -0.6617    0.4533 C   0  0  0  0  0  0  0  0  0  0  0  0
   -2.8873   -1.3195    0.4543 O   0  0  0  0  0  0  0  0  0  0  0  0
   -3.5261   -1.2063   -0.8269 C   0  0  0  0  0  0  0  0  0  0  0  0
   -4.6404   -0.1883   -0.7611 C   0  0  0  0  0  0  0  0  0  0  0  0
   -5.7463   -0.4003    0.0742 C   0  0  0  0  0  0  0  0  0  0  0  0
   -6.7743    0.5413    0.1405 C   0  0  0  0  0  0  0  0  0  0  0  0
   -6.7058    1.7040   -0.6247 C   0  0  0  0  0  0  0  0  0  0  0  0
   -5.6088    1.9275   -1.4552 C   0  0  0  0  0  0  0  0  0  0  0  0
   -4.5798    0.9867   -1.5231 C   0  0  0  0  0  0  0  0  0  0  0  0
   -0.5190   -1.3138   -0.0059 C   0  0  0  0  0  0  0  0  0  0  0  0
   -0.6447   -2.5835   -0.6048 N   0  0  0  0  0  0  0  0  0  0  0  0
    4.3931   -0.8092   -0.6984 C   0  0  0  0  0  0  0  0  0  0  0  0
    6.9402    0.6308   -1.4590 H   0  0  0  0  0  0  0  0  0  0  0  0
    7.7658   -0.6598   -0.5500 H   0  0  0  0  0  0  0  0  0  0  0  0
    6.7519   -1.0762   -1.9314 H   0  0  0  0  0  0  0  0  0  0  0  0
    6.7503    0.0282    1.6061 H   0  0  0  0  0  0  0  0  0  0  0  0
    5.6835    0.0714    3.5921 H   0  0  0  0  0  0  0  0  0  0  0  0
    2.5666   -0.7350    2.1891 H   0  0  0  0  0  0  0  0  0  0  0  0
    1.6290    1.3259    0.4423 H   0  0  0  0  0  0  0  0  0  0  0  0
   -0.4181    2.3669    1.3192 H   0  0  0  0  0  0  0  0  0  0  0  0
   -2.5535    1.0984    1.3366 H   0  0  0  0  0  0  0  0  0  0  0  0
   -2.8249   -0.9715   -1.6395 H   0  0  0  0  0  0  0  0  0  0  0  0
   -3.9579   -2.1853   -1.0666 H   0  0  0  0  0  0  0  0  0  0  0  0
   -5.8043   -1.3007    0.6820 H   0  0  0  0  0  0  0  0  0  0  0  0
   -7.6273    0.3682    0.7912 H   0  0  0  0  0  0  0  0  0  0  0  0
   -7.5064    2.4368   -0.5720 H   0  0  0  0  0  0  0  0  0  0  0  0
   -5.5536    2.8358   -2.0496 H   0  0  0  0  0  0  0  0  0  0  0  0
   -3.7276    1.1777   -2.1716 H   0  0  0  0  0  0  0  0  0  0  0  0
    0.2533   -3.0307   -0.8056 H   0  0  0  0  0  0  0  0  0  0  0  0
   -1.3226   -3.1797   -0.1407 H   0  0  0  0  0  0  0  0  0  0  0  0
    4.2772   -1.0105   -1.7627 H   0  0  0  0  0  0  0  0  0  0  0  0
  1  2  1  0
  2  3  2  0
  3  4  1  0
  4  5  1  0
  4  6  2  0
  6  7  1  0
  7  8  1  0
  8  9  2  0
  8 10  1  0
 10 11  2  0
 11 12  1  0
 12 13  2  0
 13 14  1  0
 14 15  1  0
 15 16  1  0
 16 17  1  0
 17 18  2  0
 18 19  1  0
 19 20  2  0
 20 21  1  0
 21 22  2  0
 14 23  2  0
 23 24  1  0
  7 25  2  0
 25  2  1  0
 23 10  1  0
 22 17  1  0
  1 26  1  0
  1 27  1  0
  1 28  1  0
  3 29  1  0
  5 30  1  0
  6 31  1  0
 11 32  1  0
 12 33  1  0
 13 34  1  0
 16 35  1  0
 16 36  1  0
 18 37  1  0
 19 38  1  0
 20 39  1  0
 21 40  1  0
 22 41  1  0
 24 42  1  0
 24 43  1  0
 25 44  1  0
M  END
$$$$
