
     RDKit          3D

 32 33  0  0  0  0  0  0  0  0999 V2000
   -2.5614    2.6254   -1.3150 N   0  0  0  0  0  0  0  0  0  0  0  0
   -3.4386    2.0958   -0.2750 O   0  0  0  0  0  0  0  0  0  0  0  0
   -3.3308    0.7281   -0.2827 C   0  0  0  0  0  0  0  0  0  0  0  0
   -4.4196    0.0039   -0.7768 C   0  0  0  0  0  0  0  0  0  0  0  0
   -4.3758   -1.3909   -0.7976 C   0  0  0  0  0  0  0  0  0  0  0  0
   -3.2500   -2.0551   -0.3114 C   0  0  0  0  0  0  0  0  0  0  0  0
   -3.2029   -3.7751   -0.3285 Cl  0  0  0  0  0  0  0  0  0  0  0  0
   -2.1653   -1.3412    0.1973 C   0  0  0  0  0  0  0  0  0  0  0  0
   -2.2024    0.0608    0.2123 C   0  0  0  0  0  0  0  0  0  0  0  0
   -1.0616    0.8208    0.7841 C   0  0  0  0  0  0  0  0  0  0  0  0
   -1.2434    1.8142    1.4773 O   0  0  0  0  0  0  0  0  0  0  0  0
    0.1897    0.3335    0.4700 N   0  0  0  0  0  0  0  0  0  0  0  0
    1.3717    1.0661    0.8564 C   0  0  0  0  0  0  0  0  0  0  0  0
    2.6094    0.2548    0.5850 C   0  0  0  0  0  0  0  0  0  0  0  0
    3.0394   -0.7107    1.5074 C   0  0  0  0  0  0  0  0  0  0  0  0
    4.1709   -1.4862    1.2477 C   0  0  0  0  0  0  0  0  0  0  0  0
    4.8801   -1.3108    0.0601 C   0  0  0  0  0  0  0  0  0  0  0  0
    4.4516   -0.3608   -0.8648 C   0  0  0  0  0  0  0  0  0  0  0  0
    5.4068   -0.1282   -2.4799 Br  0  0  0  0  0  0  0  0  0  0  0  0
    3.3219    0.4181   -0.6119 C   0  0  0  0  0  0  0  0  0  0  0  0
   -1.9051    3.1461   -0.7268 H   0  0  0  0  0  0  0  0  0  0  0  0
   -3.1736    3.3267   -1.7310 H   0  0  0  0  0  0  0  0  0  0  0  0
   -5.2942    0.5283   -1.1527 H   0  0  0  0  0  0  0  0  0  0  0  0
   -5.2212   -1.9511   -1.1892 H   0  0  0  0  0  0  0  0  0  0  0  0
   -1.3106   -1.8760    0.6029 H   0  0  0  0  0  0  0  0  0  0  0  0
    0.2759   -0.3180   -0.2994 H   0  0  0  0  0  0  0  0  0  0  0  0
    1.3069    1.3296    1.9188 H   0  0  0  0  0  0  0  0  0  0  0  0
    1.3899    2.0079    0.2952 H   0  0  0  0  0  0  0  0  0  0  0  0
    2.4901   -0.8621    2.4352 H   0  0  0  0  0  0  0  0  0  0  0  0
    4.4982   -2.2286    1.9716 H   0  0  0  0  0  0  0  0  0  0  0  0
    5.7598   -1.9183   -0.1348 H   0  0  0  0  0  0  0  0  0  0  0  0
    2.9941    1.1532   -1.3436 H   0  0  0  0  0  0  0  0  0  0  0  0
  1  2  1  0
  2  3  1  0
  3  4  2  0
  4  5  1  0
  5  6  2  0
  6  7  1  0
  6  8  1  0
  8  9  2  0
  9 10  1  0
 10 11  2  0
 10 12  1  0
 12 13  1  0
 13 14  1  0
 14 15  2  0
 15 16  1  0
 16 17  2  0
 17 18  1  0
 18 19  1  0
 18 20  2  0
  9  3  1  0
 20 14  1  0
  1 21  1  0
  1 22  1  0
  4 23  1  0
  5 24  1  0
  8 25  1  0
 12 26  1  0
 13 27  1  0
 13 28  1  0
 15 29  1  0
 16 30  1  0
 17 31  1  0
 20 32  1  0
M  END
$$$$
