
     RDKit          3D

 29 31  0  0  0  0  0  0  0  0999 V2000
    0.6948    2.6252    1.0476 O   0  0  0  0  0  0  0  0  0  0  0  0
    0.0321    1.7685    0.4608 C   0  0  0  0  0  0  0  0  0  0  0  0
   -1.2783    1.6095    0.8056 N   0  0  0  0  0  0  0  0  0  0  0  0
   -2.1560    0.6986    0.2250 C   0  0  0  0  0  0  0  0  0  0  0  0
   -3.4761    0.6513    0.6836 C   0  0  0  0  0  0  0  0  0  0  0  0
   -4.3759   -0.2532    0.1167 C   0  0  0  0  0  0  0  0  0  0  0  0
   -3.9511   -1.1005   -0.9010 C   0  0  0  0  0  0  0  0  0  0  0  0
   -4.8182   -1.9661   -1.4401 F   0  0  0  0  0  0  0  0  0  0  0  0
   -2.6427   -1.0620   -1.3646 C   0  0  0  0  0  0  0  0  0  0  0  0
   -1.7421   -0.1549   -0.7957 C   0  0  0  0  0  0  0  0  0  0  0  0
   -0.3476   -0.1012   -1.2727 C   0  0  0  0  0  0  0  0  0  0  0  0
   -0.0089   -0.8573   -2.1829 O   0  0  0  0  0  0  0  0  0  0  0  0
    0.6067    0.8847   -0.6303 C   0  0  0  0  0  0  0  0  0  0  0  0
    1.8702    0.1884   -0.1540 C   0  0  0  0  0  0  0  0  0  0  0  0
    1.8361   -0.7858    0.8578 C   0  0  0  0  0  0  0  0  0  0  0  0
    3.0139   -1.4090    1.2793 C   0  0  0  0  0  0  0  0  0  0  0  0
    4.2358   -1.0680    0.6996 C   0  0  0  0  0  0  0  0  0  0  0  0
    4.2814   -0.1021   -0.3031 C   0  0  0  0  0  0  0  0  0  0  0  0
    3.1060    0.5159   -0.7201 C   0  0  0  0  0  0  0  0  0  0  0  0
    3.1764    1.4437   -1.6854 F   0  0  0  0  0  0  0  0  0  0  0  0
   -1.5984    2.2301    1.5414 H   0  0  0  0  0  0  0  0  0  0  0  0
   -3.8187    1.3099    1.4782 H   0  0  0  0  0  0  0  0  0  0  0  0
   -5.4051   -0.3033    0.4605 H   0  0  0  0  0  0  0  0  0  0  0  0
   -2.3377   -1.7356   -2.1611 H   0  0  0  0  0  0  0  0  0  0  0  0
    0.8528    1.5862   -1.4407 H   0  0  0  0  0  0  0  0  0  0  0  0
    0.8972   -1.0706    1.3273 H   0  0  0  0  0  0  0  0  0  0  0  0
    2.9787   -2.1632    2.0620 H   0  0  0  0  0  0  0  0  0  0  0  0
    5.1505   -1.5543    1.0288 H   0  0  0  0  0  0  0  0  0  0  0  0
    5.2240    0.1750   -0.7640 H   0  0  0  0  0  0  0  0  0  0  0  0
  1  2  2  0
  2  3  1  0
  3  4  1  0
  4  5  2  0
  5  6  1  0
  6  7  2  0
  7  8  1  0
  7  9  1  0
  9 10  2  0
 10 11  1  0
 11 12  2  0
 11 13  1  0
 13 14  1  0
 14 15  2  0
 15 16  1  0
 16 17  2  0
 17 18  1  0
 18 19  2  0
 19 20  1  0
 13  2  1  0
 19 14  1  0
 10  4  1  0
  3 21  1  0
  5 22  1  0
  6 23  1  0
  9 24  1  0
 13 25  1  0
 15 26  1  0
 16 27  1  0
 17 28  1  0
 18 29  1  0
M  END
$$$$
