
     RDKit          3D

 43 47  0  0  0  0  0  0  0  0999 V2000
    0.2671   -2.6585   -2.8191 C   0  0  0  0  0  0  0  0  0  0  0  0
    1.0144   -1.6558   -3.2973 N   0  0  0  0  0  0  0  0  0  0  0  0
    1.5907   -0.9721   -2.2790 C   0  0  0  0  0  0  0  0  0  0  0  0
    1.1803   -0.5188   -1.0701 C   0  0  0  0  0  0  0  0  0  0  0  0
    2.2895    0.0471   -0.2432 C   0  0  0  0  0  0  0  0  0  0  0  0
    2.5833    1.4182   -0.3053 C   0  0  0  0  0  0  0  0  0  0  0  0
    3.6050    1.9842    0.4653 C   0  0  0  0  0  0  0  0  0  0  0  0
    4.3192    1.1187    1.2994 C   0  0  0  0  0  0  0  0  0  0  0  0
    5.3610    1.3363    2.1589 N   0  0  0  0  0  0  0  0  0  0  0  0
    5.7922    0.2370    2.8074 N   0  0  0  0  0  0  0  0  0  0  0  0
    5.0000   -0.7258    2.3199 C   0  0  0  0  0  0  0  0  0  0  0  0
    4.0591   -0.2444    1.3827 C   0  0  0  0  0  0  0  0  0  0  0  0
    3.0320   -0.7982    0.6014 C   0  0  0  0  0  0  0  0  0  0  0  0
   -0.0349   -0.4358   -0.4842 C   0  0  0  0  0  0  0  0  0  0  0  0
   -1.3420   -0.6277   -0.7628 C   0  0  0  0  0  0  0  0  0  0  0  0
   -2.0791   -1.0532   -1.8335 C   0  0  0  0  0  0  0  0  0  0  0  0
   -1.9383   -1.5595   -3.0738 N   0  0  0  0  0  0  0  0  0  0  0  0
   -1.0715   -2.7568   -3.1289 N   0  0  0  0  0  0  0  0  0  0  0  0
   -3.4565   -0.7868   -1.6219 N   0  0  0  0  0  0  0  0  0  0  0  0
   -3.5296    0.2495   -0.6463 C   0  0  0  0  0  0  0  0  0  0  0  0
   -4.7550    0.3171    0.0776 O   0  0  0  0  0  0  0  0  0  0  0  0
   -4.6762    1.3875    1.0221 C   0  0  0  0  0  0  0  0  0  0  0  0
   -3.4972    1.2380    1.9913 C   0  0  0  0  0  0  0  0  0  0  0  0
   -2.1689    0.9725    1.2678 C   0  0  0  0  0  0  0  0  0  0  0  0
   -2.3825   -0.1704    0.2756 C   0  0  0  0  0  0  0  0  0  0  0  0
    0.4929   -3.2403   -1.9286 H   0  0  0  0  0  0  0  0  0  0  0  0
    2.6259   -0.7087   -2.5046 H   0  0  0  0  0  0  0  0  0  0  0  0
    2.0012    2.0404   -0.9840 H   0  0  0  0  0  0  0  0  0  0  0  0
    3.8260    3.0425    0.4005 H   0  0  0  0  0  0  0  0  0  0  0  0
    5.8217    2.2171    2.3469 H   0  0  0  0  0  0  0  0  0  0  0  0
    5.1305   -1.7435    2.6625 H   0  0  0  0  0  0  0  0  0  0  0  0
    2.8020   -1.8606    0.6239 H   0  0  0  0  0  0  0  0  0  0  0  0
    0.0703   -0.0434    0.5269 H   0  0  0  0  0  0  0  0  0  0  0  0
   -1.5065   -3.4505   -2.5300 H   0  0  0  0  0  0  0  0  0  0  0  0
   -3.8330   -0.6118   -2.5455 H   0  0  0  0  0  0  0  0  0  0  0  0
   -3.3454    1.2198   -1.1333 H   0  0  0  0  0  0  0  0  0  0  0  0
   -4.6102    2.3390    0.4803 H   0  0  0  0  0  0  0  0  0  0  0  0
   -5.6150    1.4025    1.5854 H   0  0  0  0  0  0  0  0  0  0  0  0
   -3.4131    2.1284    2.6234 H   0  0  0  0  0  0  0  0  0  0  0  0
   -3.7001    0.3874    2.6543 H   0  0  0  0  0  0  0  0  0  0  0  0
   -1.8376    1.8804    0.7493 H   0  0  0  0  0  0  0  0  0  0  0  0
   -1.4016    0.7179    2.0070 H   0  0  0  0  0  0  0  0  0  0  0  0
   -2.6705   -1.0590    0.8617 H   0  0  0  0  0  0  0  0  0  0  0  0
  1  2  2  0
  2  3  1  0
  3  4  2  0
  4  5  1  0
  5  6  2  0
  6  7  1  0
  7  8  2  0
  8  9  1  0
  9 10  1  0
 10 11  2  0
 11 12  1  0
 12 13  2  0
  4 14  1  0
 14 15  2  0
 15 16  1  0
 16 17  2  0
 17 18  1  0
 16 19  1  0
 19 20  1  0
 20 21  1  0
 21 22  1  0
 22 23  1  0
 23 24  1  0
 24 25  1  0
 18  1  1  0
 25 20  1  0
 13  5  1  0
 25 15  1  0
 12  8  1  0
  1 26  1  0
  3 27  1  0
  6 28  1  0
  7 29  1  0
  9 30  1  0
 11 31  1  0
 13 32  1  0
 14 33  1  0
 18 34  1  0
 19 35  1  0
 20 36  1  0
 22 37  1  0
 22 38  1  0
 23 39  1  0
 23 40  1  0
 24 41  1  0
 24 42  1  0
 25 43  1  0
M  END
$$$$
