
     RDKit          3D

 53 56  0  0  0  0  0  0  0  0999 V2000
   -4.3681   -1.2821    0.7008 C   0  0  0  0  0  2  0  0  0  0  0  0
   -4.1516    0.1535    0.4193 C   0  0  0  0  0  0  0  0  0  0  0  0
   -5.4282    0.7816   -0.1615 C   0  0  0  0  0  0  0  0  0  0  0  0
   -5.7100    0.3487   -1.5998 C   0  0  0  0  0  0  0  0  0  0  0  0
   -4.5070    0.5711   -2.5084 C   0  0  0  0  0  0  0  0  0  0  0  0
   -3.2503   -0.0922   -1.9512 C   0  0  0  0  0  0  0  0  0  0  0  0
   -2.9235    0.3437   -0.5056 C   0  0  0  0  0  0  0  0  0  0  0  0
   -2.3811    1.7955   -0.4983 C   0  0  0  0  0  0  0  0  0  0  0  0
   -1.7620    2.2484    0.8276 C   0  0  0  0  0  0  0  0  0  0  0  0
   -0.5874    1.4572    1.1706 N   0  0  0  0  0  0  0  0  0  0  0  0
   -0.3672    0.6937    2.3020 C   0  0  0  0  0  0  0  0  0  0  0  0
   -1.3948    0.5758    3.6223 S   0  0  0  0  0  0  0  0  0  0  0  0
    0.9885   -0.0399    2.3167 C   0  0  2  0  0  0  0  0  0  0  0  0
    2.0614    0.9071    2.9156 C   0  0  0  0  0  0  0  0  0  0  0  0
    3.4147    0.5708    2.5874 O   0  0  0  0  0  0  0  0  0  0  0  0
    3.8624   -0.5942    3.1363 C   0  0  0  0  0  3  0  0  0  0  0  0
    4.6365   -1.4936    2.4322 O   0  0  0  0  0  0  0  0  0  0  0  0
    4.5908   -1.4300    1.0945 C   0  0  0  0  0  0  0  0  0  0  0  0
    5.6672   -1.3695    0.3400 N   0  0  0  0  0  0  0  0  0  0  0  0
    5.1869   -0.9923   -0.8955 C   0  0  0  0  0  0  0  0  0  0  0  0
    5.8403   -0.6992   -2.1042 C   0  0  0  0  0  0  0  0  0  0  0  0
    7.2199   -0.7418   -2.2504 N   0  0  0  0  0  0  0  0  0  0  0  0
    5.0940   -0.3740   -3.1826 N   0  0  0  0  0  0  0  0  0  0  0  0
    3.7524   -0.3219   -3.0428 C   0  0  0  0  0  0  0  0  0  0  0  0
    3.0174   -0.5757   -1.9443 N   0  0  0  0  0  0  0  0  0  0  0  0
    3.8020   -0.9043   -0.8990 C   0  0  0  0  0  0  0  0  0  0  0  0
    3.4129   -1.2975    0.3641 N   0  0  0  0  0  0  0  0  0  0  0  0
    2.1241   -1.4779    0.8564 C   0  0  0  0  0  3  0  0  0  0  0  0
    1.2724   -0.3951    0.9385 O   0  0  0  0  0  0  0  0  0  0  0  0
   -4.5226   -2.3150    0.9086 H   0  0  0  0  0  0  0  0  0  0  0  0
   -3.9618    0.6277    1.3876 H   0  0  0  0  0  0  0  0  0  0  0  0
   -6.2948    0.5316    0.4637 H   0  0  0  0  0  0  0  0  0  0  0  0
   -5.3364    1.8745   -0.1348 H   0  0  0  0  0  0  0  0  0  0  0  0
   -5.9897   -0.7116   -1.6188 H   0  0  0  0  0  0  0  0  0  0  0  0
   -6.5704    0.9061   -1.9876 H   0  0  0  0  0  0  0  0  0  0  0  0
   -4.3372    1.6461   -2.6386 H   0  0  0  0  0  0  0  0  0  0  0  0
   -4.7223    0.1663   -3.5040 H   0  0  0  0  0  0  0  0  0  0  0  0
   -2.4012    0.1217   -2.6115 H   0  0  0  0  0  0  0  0  0  0  0  0
   -3.3856   -1.1811   -1.9764 H   0  0  0  0  0  0  0  0  0  0  0  0
   -2.1123   -0.3111   -0.1585 H   0  0  0  0  0  0  0  0  0  0  0  0
   -1.6140    1.8873   -1.2788 H   0  0  0  0  0  0  0  0  0  0  0  0
   -3.1755    2.5014   -0.7649 H   0  0  0  0  0  0  0  0  0  0  0  0
   -1.4066    3.2790    0.7154 H   0  0  0  0  0  0  0  0  0  0  0  0
   -2.4988    2.2508    1.6322 H   0  0  0  0  0  0  0  0  0  0  0  0
    0.1148    1.3624    0.4377 H   0  0  0  0  0  0  0  0  0  0  0  0
    0.8938   -0.9461    2.9304 H   0  0  0  0  0  0  0  0  0  0  0  0
    1.9484    0.9879    4.0044 H   0  0  0  0  0  0  0  0  0  0  0  0
    1.9136    1.9183    2.5177 H   0  0  0  0  0  0  0  0  0  0  0  0
    3.9379   -0.6582    4.2069 H   0  0  0  0  0  0  0  0  0  0  0  0
    7.5033   -0.8615   -3.2136 H   0  0  0  0  0  0  0  0  0  0  0  0
    7.6915   -1.2935   -1.5428 H   0  0  0  0  0  0  0  0  0  0  0  0
    3.1959   -0.0445   -3.9336 H   0  0  0  0  0  0  0  0  0  0  0  0
    2.0168   -2.1742    1.6786 H   0  0  0  0  0  0  0  0  0  0  0  0
  1  2  1  0
  2  3  1  0
  3  4  1  0
  4  5  1  0
  5  6  1  0
  6  7  1  0
  7  8  1  0
  8  9  1  0
  9 10  1  0
 10 11  1  0
 11 12  2  0
 11 13  1  0
 13 14  1  0
 14 15  1  0
 15 16  1  0
 16 17  1  0
 17 18  1  0
 18 19  2  0
 19 20  1  0
 20 21  2  0
 21 22  1  0
 21 23  1  0
 23 24  2  0
 24 25  1  0
 25 26  2  0
 26 27  1  0
 27 28  1  0
 28 29  1  0
  7  2  1  0
 29 13  1  0
 27 18  1  0
 26 20  1  0
  1 30  1  0
  2 31  1  0
  3 32  1  0
  3 33  1  0
  4 34  1  0
  4 35  1  0
  5 36  1  0
  5 37  1  0
  6 38  1  0
  6 39  1  0
  7 40  1  0
  8 41  1  0
  8 42  1  0
  9 43  1  0
  9 44  1  0
 10 45  1  0
 13 46  1  1
 14 47  1  0
 14 48  1  0
 16 49  1  0
 22 50  1  0
 22 51  1  0
 24 52  1  0
 28 53  1  0
M  RAD  3   1   3  16   2  28   2
M  END
$$$$
