
     RDKit          3D

 45 48  0  0  0  0  0  0  0  0999 V2000
    8.6659    0.4806   -2.0438 Cl  0  0  0  0  0  0  0  0  0  0  0  0
    7.2196    0.2668   -1.0946 C   0  0  0  0  0  0  0  0  0  0  0  0
    7.3046    0.4663    0.2284 C   0  0  0  0  0  0  0  0  0  0  0  0
    6.3212    0.3379    1.1835 N   0  0  0  0  0  0  0  0  0  0  0  0
    5.2315   -0.6099    1.0333 C   0  0  0  0  0  0  0  0  0  0  0  0
    4.3280   -0.3096   -0.0801 N   0  0  0  0  0  0  0  0  0  0  0  0
    2.9949   -0.4299    0.2712 N   0  0  0  0  0  0  0  0  0  0  0  0
    2.1403   -0.5025   -0.7047 C   0  0  0  0  0  0  0  0  0  0  0  0
    0.6893   -0.6173   -0.4176 C   0  0  0  0  0  0  0  0  0  0  0  0
   -0.1725   -1.3318   -1.2567 C   0  0  0  0  0  0  0  0  0  0  0  0
   -1.5351   -1.4191   -0.9517 C   0  0  0  0  0  0  0  0  0  0  0  0
   -2.0536   -0.7955    0.1921 C   0  0  0  0  0  0  0  0  0  0  0  0
   -3.5267   -0.9114    0.5323 C   0  0  0  0  0  0  0  0  0  0  0  0
   -4.1609    0.3842    0.8139 N   0  0  0  0  0  0  0  0  0  0  0  0
   -5.4687    0.1840    1.4751 C   0  0  0  0  0  0  0  0  0  0  0  0
   -6.3877    1.4013    1.3025 C   0  0  0  0  0  0  0  0  0  0  0  0
   -6.7382    1.6321   -0.0690 O   0  0  0  0  0  0  0  0  0  0  0  0
   -5.7230    1.2086   -0.9888 C   0  0  0  0  0  0  0  0  0  0  0  0
   -4.3081    1.2335   -0.3888 C   0  0  0  0  0  0  0  0  0  0  0  0
   -1.1778   -0.1007    1.0390 C   0  0  0  0  0  0  0  0  0  0  0  0
    0.1831   -0.0126    0.7384 C   0  0  0  0  0  0  0  0  0  0  0  0
    2.6152   -0.4755   -2.1287 C   0  0  0  0  0  0  0  0  0  0  0  0
    3.8581   -0.3882   -2.4713 N   0  0  0  0  0  0  0  0  0  0  0  0
    4.7491   -0.2622   -1.4197 C   0  0  0  0  0  0  0  0  0  0  0  0
    6.0179   -0.0470   -1.8377 C   0  0  0  0  0  0  0  0  0  0  0  0
    8.2527    0.7753    0.6661 H   0  0  0  0  0  0  0  0  0  0  0  0
    6.6783    0.3628    2.1337 H   0  0  0  0  0  0  0  0  0  0  0  0
    5.6281   -1.6277    0.9226 H   0  0  0  0  0  0  0  0  0  0  0  0
    4.6685   -0.6061    1.9754 H   0  0  0  0  0  0  0  0  0  0  0  0
    0.1929   -1.8528   -2.1371 H   0  0  0  0  0  0  0  0  0  0  0  0
   -2.1898   -1.9844   -1.6122 H   0  0  0  0  0  0  0  0  0  0  0  0
   -4.0654   -1.4334   -0.2695 H   0  0  0  0  0  0  0  0  0  0  0  0
   -3.5853   -1.5559    1.4200 H   0  0  0  0  0  0  0  0  0  0  0  0
   -5.3035   -0.0053    2.5413 H   0  0  0  0  0  0  0  0  0  0  0  0
   -5.9807   -0.6906    1.0519 H   0  0  0  0  0  0  0  0  0  0  0  0
   -7.3196    1.2514    1.8570 H   0  0  0  0  0  0  0  0  0  0  0  0
   -5.9170    2.3096    1.6969 H   0  0  0  0  0  0  0  0  0  0  0  0
   -5.7736    1.8724   -1.8580 H   0  0  0  0  0  0  0  0  0  0  0  0
   -5.9777    0.2004   -1.3357 H   0  0  0  0  0  0  0  0  0  0  0  0
   -3.5744    0.9880   -1.1644 H   0  0  0  0  0  0  0  0  0  0  0  0
   -4.0878    2.2622   -0.0764 H   0  0  0  0  0  0  0  0  0  0  0  0
   -1.5594    0.3817    1.9375 H   0  0  0  0  0  0  0  0  0  0  0  0
    0.8417    0.5371    1.4082 H   0  0  0  0  0  0  0  0  0  0  0  0
    1.8409   -0.5298   -2.9069 H   0  0  0  0  0  0  0  0  0  0  0  0
    6.1648   -0.0370   -2.9181 H   0  0  0  0  0  0  0  0  0  0  0  0
  1  2  1  0
  2  3  2  0
  3  4  1  0
  4  5  1  0
  5  6  1  0
  6  7  1  0
  7  8  2  0
  8  9  1  0
  9 10  2  0
 10 11  1  0
 11 12  2  0
 12 13  1  0
 13 14  1  0
 14 15  1  0
 15 16  1  0
 16 17  1  0
 17 18  1  0
 18 19  1  0
 12 20  1  0
 20 21  2  0
  8 22  1  0
 22 23  2  0
 23 24  1  0
 24 25  2  0
 25  2  1  0
 24  6  1  0
 21  9  1  0
 19 14  1  0
  3 26  1  0
  4 27  1  0
  5 28  1  0
  5 29  1  0
 10 30  1  0
 11 31  1  0
 13 32  1  0
 13 33  1  0
 15 34  1  0
 15 35  1  0
 16 36  1  0
 16 37  1  0
 18 38  1  0
 18 39  1  0
 19 40  1  0
 19 41  1  0
 20 42  1  0
 21 43  1  0
 22 44  1  0
 25 45  1  0
M  END
$$$$
