
     RDKit          3D

 46 49  0  0  0  0  0  0  0  0999 V2000
   -4.4057    1.4255   -1.6833 C   0  0  0  0  0  3  0  0  0  0  0  0
   -5.6854    1.3198   -0.9368 C   0  0  0  0  0  0  0  0  0  0  0  0
   -6.0809   -0.1170   -0.6104 C   0  0  0  0  0  0  0  0  0  0  0  0
   -5.3260   -0.6958    0.5830 C   0  0  0  0  0  0  0  0  0  0  0  0
   -3.8177   -0.8520    0.3813 C   0  0  0  0  0  0  0  0  0  0  0  0
   -3.0976    0.4731    0.0846 C   0  0  1  0  0  0  0  0  0  0  0  0
   -1.6704    0.4051    0.4182 N   0  0  0  0  0  0  0  0  0  0  0  0
   -0.9337   -0.5876   -0.3578 C   0  0  0  0  0  0  0  0  0  0  0  0
    0.5258   -0.4792   -0.0344 C   0  0  0  0  0  0  0  0  0  0  0  0
    1.2284   -1.3224    0.7429 C   0  0  0  0  0  0  0  0  0  0  0  0
    0.6506   -2.5282    1.4683 C   0  0  0  0  0  0  0  0  0  0  0  0
    1.8421   -3.1579    2.0420 N   0  0  0  0  0  0  0  0  0  0  0  0
    2.9303   -2.3393    1.8299 C   0  0  0  0  0  0  0  0  0  0  0  0
    2.6647   -1.2662    1.0648 C   0  0  0  0  0  0  0  0  0  0  0  0
    3.6122   -0.2653    0.6931 C   0  0  0  0  0  0  0  0  0  0  0  0
    4.9858   -0.3636    0.7507 C   0  0  0  0  0  0  0  0  0  0  0  0
    5.4515    0.8408    0.2982 N   0  0  0  0  0  0  0  0  0  0  0  0
    6.7562    1.2863    0.1418 C   0  0  0  0  0  0  0  0  0  0  0  0
    6.9716    2.5233   -0.3255 C   0  0  0  0  0  0  0  0  0  0  0  0
    5.7380    3.3030   -0.6330 C   0  0  0  0  0  0  0  0  0  0  0  0
    4.5122    2.9014   -0.4924 N   0  0  0  0  0  0  0  0  0  0  0  0
    4.3488    1.6323   -0.0127 C   0  0  0  0  0  0  0  0  0  0  0  0
    3.2356    0.9707    0.2264 N   0  0  0  0  0  0  0  0  0  0  0  0
   -3.2370    0.8387   -1.2889 O   0  0  0  0  0  0  0  0  0  0  0  0
   -4.3541    1.7384   -2.7178 H   0  0  0  0  0  0  0  0  0  0  0  0
   -6.4686    1.7546   -1.5700 H   0  0  0  0  0  0  0  0  0  0  0  0
   -5.6515    1.9364   -0.0318 H   0  0  0  0  0  0  0  0  0  0  0  0
   -5.9500   -0.7637   -1.4869 H   0  0  0  0  0  0  0  0  0  0  0  0
   -7.1511   -0.1316   -0.3686 H   0  0  0  0  0  0  0  0  0  0  0  0
   -5.7457   -1.6835    0.8113 H   0  0  0  0  0  0  0  0  0  0  0  0
   -5.5103   -0.0727    1.4672 H   0  0  0  0  0  0  0  0  0  0  0  0
   -3.6482   -1.5681   -0.4326 H   0  0  0  0  0  0  0  0  0  0  0  0
   -3.4158   -1.2956    1.3015 H   0  0  0  0  0  0  0  0  0  0  0  0
   -3.5064    1.2674    0.7223 H   0  0  0  0  0  0  0  0  0  0  0  0
   -1.2811    1.3205    0.1924 H   0  0  0  0  0  0  0  0  0  0  0  0
   -1.2984   -1.5964   -0.1423 H   0  0  0  0  0  0  0  0  0  0  0  0
   -1.0519   -0.4253   -1.4356 H   0  0  0  0  0  0  0  0  0  0  0  0
    1.0327    0.3624   -0.5007 H   0  0  0  0  0  0  0  0  0  0  0  0
    0.1589   -3.2258    0.7840 H   0  0  0  0  0  0  0  0  0  0  0  0
   -0.0371   -2.2209    2.2631 H   0  0  0  0  0  0  0  0  0  0  0  0
    1.7445   -3.4706    3.0039 H   0  0  0  0  0  0  0  0  0  0  0  0
    3.8710   -2.6020    2.2953 H   0  0  0  0  0  0  0  0  0  0  0  0
    5.6483   -1.1599    1.0552 H   0  0  0  0  0  0  0  0  0  0  0  0
    7.5532    0.6042    0.4076 H   0  0  0  0  0  0  0  0  0  0  0  0
    7.9439    2.9657   -0.4844 H   0  0  0  0  0  0  0  0  0  0  0  0
    5.9182    4.3211   -1.0174 H   0  0  0  0  0  0  0  0  0  0  0  0
  1  2  1  0
  2  3  1  0
  3  4  1  0
  4  5  1  0
  5  6  1  0
  6  7  1  0
  7  8  1  0
  8  9  1  0
  9 10  2  3
 10 11  1  0
 11 12  1  0
 12 13  1  0
 13 14  2  0
 14 15  1  0
 15 16  2  0
 16 17  1  0
 17 18  1  0
 18 19  2  0
 19 20  1  0
 20 21  2  0
 21 22  1  0
 22 23  2  0
  6 24  1  0
 24  1  1  0
 14 10  1  0
 23 15  1  0
 22 17  1  0
  1 25  1  0
  2 26  1  0
  2 27  1  0
  3 28  1  0
  3 29  1  0
  4 30  1  0
  4 31  1  0
  5 32  1  0
  5 33  1  0
  6 34  1  1
  7 35  1  0
  8 36  1  0
  8 37  1  0
  9 38  1  0
 11 39  1  0
 11 40  1  0
 12 41  1  0
 13 42  1  0
 16 43  1  0
 18 44  1  0
 19 45  1  0
 20 46  1  0
M  RAD  1   1   2
M  END
$$$$
