
     RDKit          3D

 52 54  0  0  0  0  0  0  0  0999 V2000
    7.2475    1.9035    0.7038 C   0  0  0  0  0  0  0  0  0  0  0  0
    5.9420    1.7798   -0.0680 C   0  0  0  0  0  0  0  0  0  0  0  0
    5.6655    0.3625   -0.5836 C   0  0  0  0  0  0  0  0  0  0  0  0
    5.5911   -0.6866    0.4350 N   0  0  0  0  0  0  0  0  0  0  0  0
    4.4719   -0.5486    1.3691 C   0  0  0  0  0  0  0  0  0  0  0  0
    3.1128   -0.6932    0.7265 C   0  0  0  0  0  0  0  0  0  0  0  0
    2.7643   -1.8698    0.0503 C   0  0  0  0  0  0  0  0  0  0  0  0
    1.5027   -2.0148   -0.5382 C   0  0  0  0  0  0  0  0  0  0  0  0
    0.5650   -0.9865   -0.4578 C   0  0  0  0  0  0  0  0  0  0  0  0
   -0.7220   -1.0475   -1.0231 N   0  0  0  0  0  0  0  0  0  0  0  0
   -1.3265   -2.1167   -1.6643 C   0  0  0  0  0  0  0  0  0  0  0  0
   -0.8343   -3.2255   -1.8594 O   0  0  0  0  0  0  0  0  0  0  0  0
   -2.7119   -1.7854   -2.1972 C   0  0  0  0  0  0  0  0  0  0  0  0
   -3.6017   -1.2402   -1.1297 C   0  0  0  0  0  0  0  0  0  0  0  0
   -3.5145    0.0547   -0.7947 N   0  0  0  0  0  0  0  0  0  0  0  0
   -4.4417    0.2303    0.1844 N   0  0  0  0  0  0  0  0  0  0  0  0
   -4.6405    1.5071    0.7749 C   0  0  0  0  0  0  0  0  0  0  0  0
   -5.5647    1.6964    1.8045 C   0  0  0  0  0  0  0  0  0  0  0  0
   -5.7010    2.9719    2.3302 C   0  0  0  0  0  0  0  0  0  0  0  0
   -4.9949    4.0410    1.9078 N   0  0  0  0  0  0  0  0  0  0  0  0
   -4.1108    3.8324    0.9100 C   0  0  0  0  0  0  0  0  0  0  0  0
   -3.8978    2.6003    0.3167 C   0  0  0  0  0  0  0  0  0  0  0  0
   -5.0816   -0.9527    0.4773 C   0  0  0  0  0  0  0  0  0  0  0  0
   -4.5651   -1.9260   -0.3513 C   0  0  0  0  0  0  0  0  0  0  0  0
   -4.9338   -3.3601   -0.4094 C   0  0  0  0  0  0  0  0  0  0  0  0
    0.9093    0.1911    0.2164 C   0  0  0  0  0  0  0  0  0  0  0  0
    2.1698    0.3375    0.8048 C   0  0  0  0  0  0  0  0  0  0  0  0
    8.0919    1.5446    0.1068 H   0  0  0  0  0  0  0  0  0  0  0  0
    7.2167    1.3355    1.6383 H   0  0  0  0  0  0  0  0  0  0  0  0
    7.4353    2.9514    0.9595 H   0  0  0  0  0  0  0  0  0  0  0  0
    5.1136    2.1336    0.5552 H   0  0  0  0  0  0  0  0  0  0  0  0
    5.9859    2.4545   -0.9317 H   0  0  0  0  0  0  0  0  0  0  0  0
    6.4713    0.0853   -1.2742 H   0  0  0  0  0  0  0  0  0  0  0  0
    4.7543    0.3698   -1.1928 H   0  0  0  0  0  0  0  0  0  0  0  0
    6.4596   -0.7076    0.9653 H   0  0  0  0  0  0  0  0  0  0  0  0
    4.5449    0.3922    1.9268 H   0  0  0  0  0  0  0  0  0  0  0  0
    4.5591   -1.3405    2.1241 H   0  0  0  0  0  0  0  0  0  0  0  0
    3.4851   -2.6815   -0.0306 H   0  0  0  0  0  0  0  0  0  0  0  0
    1.2890   -2.9439   -1.0568 H   0  0  0  0  0  0  0  0  0  0  0  0
   -1.3185   -0.2331   -0.8818 H   0  0  0  0  0  0  0  0  0  0  0  0
   -2.6028   -1.0652   -3.0167 H   0  0  0  0  0  0  0  0  0  0  0  0
   -3.1477   -2.6953   -2.6250 H   0  0  0  0  0  0  0  0  0  0  0  0
   -6.1751    0.9001    2.2109 H   0  0  0  0  0  0  0  0  0  0  0  0
   -6.4049    3.1735    3.1332 H   0  0  0  0  0  0  0  0  0  0  0  0
   -3.5594    4.7112    0.5878 H   0  0  0  0  0  0  0  0  0  0  0  0
   -3.1721    2.5111   -0.4850 H   0  0  0  0  0  0  0  0  0  0  0  0
   -5.8453   -1.0197    1.2365 H   0  0  0  0  0  0  0  0  0  0  0  0
   -4.0475   -3.9903   -0.2869 H   0  0  0  0  0  0  0  0  0  0  0  0
   -5.3962   -3.5957   -1.3729 H   0  0  0  0  0  0  0  0  0  0  0  0
   -5.6451   -3.6197    0.3812 H   0  0  0  0  0  0  0  0  0  0  0  0
    0.2003    1.0110    0.2959 H   0  0  0  0  0  0  0  0  0  0  0  0
    2.4085    1.2634    1.3224 H   0  0  0  0  0  0  0  0  0  0  0  0
  1  2  1  0
  2  3  1  0
  3  4  1  0
  4  5  1  0
  5  6  1  0
  6  7  2  0
  7  8  1  0
  8  9  2  0
  9 10  1  0
 10 11  1  0
 11 12  2  0
 11 13  1  0
 13 14  1  0
 14 15  2  0
 15 16  1  0
 16 17  1  0
 17 18  2  0
 18 19  1  0
 19 20  2  0
 20 21  1  0
 21 22  2  0
 16 23  1  0
 23 24  2  0
 24 25  1  0
  9 26  1  0
 26 27  2  0
 27  6  1  0
 24 14  1  0
 22 17  1  0
  1 28  1  0
  1 29  1  0
  1 30  1  0
  2 31  1  0
  2 32  1  0
  3 33  1  0
  3 34  1  0
  4 35  1  0
  5 36  1  0
  5 37  1  0
  7 38  1  0
  8 39  1  0
 10 40  1  0
 13 41  1  0
 13 42  1  0
 18 43  1  0
 19 44  1  0
 21 45  1  0
 22 46  1  0
 23 47  1  0
 25 48  1  0
 25 49  1  0
 25 50  1  0
 26 51  1  0
 27 52  1  0
M  END
$$$$
