
     RDKit          3D

 55 57  0  0  0  0  0  0  0  0999 V2000
   -7.9942    1.2556   -1.4310 C   0  0  0  0  0  0  0  0  0  0  0  0
   -7.0365    0.1341   -1.0598 C   0  0  0  0  0  0  0  0  0  0  0  0
   -5.7828    0.0926   -1.9401 C   0  0  0  0  0  0  0  0  0  0  0  0
   -5.0070    1.3322   -1.9589 N   0  0  0  0  0  0  0  0  0  0  0  0
   -4.3477    1.6590   -0.6935 C   0  0  0  0  0  0  0  0  0  0  0  0
   -3.1275    0.8133   -0.4162 C   0  0  0  0  0  0  0  0  0  0  0  0
   -1.9056    1.1038   -1.0350 C   0  0  0  0  0  0  0  0  0  0  0  0
   -0.7789    0.3149   -0.7865 C   0  0  0  0  0  0  0  0  0  0  0  0
   -0.8509   -0.7831    0.0780 C   0  0  0  0  0  0  0  0  0  0  0  0
    0.3297   -1.5223    0.2713 N   0  0  0  0  0  0  0  0  0  0  0  0
    0.5354   -2.6079    1.1078 C   0  0  0  0  0  0  0  0  0  0  0  0
   -0.2999   -3.1457    1.8289 O   0  0  0  0  0  0  0  0  0  0  0  0
    1.9538   -3.1501    1.0283 C   0  0  0  0  0  0  0  0  0  0  0  0
    2.9544   -2.0952    1.3686 C   0  0  0  0  0  0  0  0  0  0  0  0
    3.3711   -1.2493    0.4170 N   0  0  0  0  0  0  0  0  0  0  0  0
    4.2373   -0.4112    1.0443 N   0  0  0  0  0  0  0  0  0  0  0  0
    4.8721    0.6391    0.3278 C   0  0  0  0  0  0  0  0  0  0  0  0
    5.7161    1.5467    0.9668 C   0  0  0  0  0  0  0  0  0  0  0  0
    6.2881    2.5489    0.2042 C   0  0  0  0  0  0  0  0  0  0  0  0
    6.0812    2.6986   -1.1216 N   0  0  0  0  0  0  0  0  0  0  0  0
    5.2620    1.8066   -1.7467 C   0  0  0  0  0  0  0  0  0  0  0  0
    4.9870    1.9484   -3.2387 C   0  0  0  0  0  0  0  0  0  0  0  0
    3.6898    2.2898   -3.4965 F   0  0  0  0  0  0  0  0  0  0  0  0
    5.1969    0.7832   -3.9200 F   0  0  0  0  0  0  0  0  0  0  0  0
    5.7505    2.8854   -3.8687 F   0  0  0  0  0  0  0  0  0  0  0  0
    4.6423    0.7710   -1.0482 C   0  0  0  0  0  0  0  0  0  0  0  0
    4.3562   -0.7276    2.3778 C   0  0  0  0  0  0  0  0  0  0  0  0
    3.5414   -1.8106    2.6252 C   0  0  0  0  0  0  0  0  0  0  0  0
    3.3176   -2.5029    3.9161 C   0  0  0  0  0  0  0  0  0  0  0  0
   -2.0684   -1.0800    0.6891 C   0  0  0  0  0  0  0  0  0  0  0  0
   -3.1965   -0.2872    0.4460 C   0  0  0  0  0  0  0  0  0  0  0  0
   -7.5394    2.2374   -1.2751 H   0  0  0  0  0  0  0  0  0  0  0  0
   -8.8936    1.2058   -0.8106 H   0  0  0  0  0  0  0  0  0  0  0  0
   -8.3004    1.1783   -2.4790 H   0  0  0  0  0  0  0  0  0  0  0  0
   -6.7666    0.2224   -0.0021 H   0  0  0  0  0  0  0  0  0  0  0  0
   -7.5631   -0.8208   -1.1637 H   0  0  0  0  0  0  0  0  0  0  0  0
   -5.1567   -0.7604   -1.6541 H   0  0  0  0  0  0  0  0  0  0  0  0
   -6.1020   -0.1072   -2.9704 H   0  0  0  0  0  0  0  0  0  0  0  0
   -4.2944    1.2638   -2.6845 H   0  0  0  0  0  0  0  0  0  0  0  0
   -5.0430    1.6278    0.1527 H   0  0  0  0  0  0  0  0  0  0  0  0
   -4.0265    2.7066   -0.7464 H   0  0  0  0  0  0  0  0  0  0  0  0
   -1.8237    1.9510   -1.7127 H   0  0  0  0  0  0  0  0  0  0  0  0
    0.1540    0.5729   -1.2807 H   0  0  0  0  0  0  0  0  0  0  0  0
    1.1630   -1.1745   -0.2008 H   0  0  0  0  0  0  0  0  0  0  0  0
    2.0447   -4.0005    1.7141 H   0  0  0  0  0  0  0  0  0  0  0  0
    2.1211   -3.5339    0.0147 H   0  0  0  0  0  0  0  0  0  0  0  0
    5.9407    1.5090    2.0262 H   0  0  0  0  0  0  0  0  0  0  0  0
    6.9496    3.2856    0.6542 H   0  0  0  0  0  0  0  0  0  0  0  0
    3.9924    0.0808   -1.5812 H   0  0  0  0  0  0  0  0  0  0  0  0
    4.9950   -0.1715    3.0453 H   0  0  0  0  0  0  0  0  0  0  0  0
    4.0200   -2.1554    4.6812 H   0  0  0  0  0  0  0  0  0  0  0  0
    3.4526   -3.5818    3.8030 H   0  0  0  0  0  0  0  0  0  0  0  0
    2.3009   -2.3183    4.2757 H   0  0  0  0  0  0  0  0  0  0  0  0
   -2.1770   -1.9247    1.3619 H   0  0  0  0  0  0  0  0  0  0  0  0
   -4.1347   -0.5424    0.9345 H   0  0  0  0  0  0  0  0  0  0  0  0
  1  2  1  0
  2  3  1  0
  3  4  1  0
  4  5  1  0
  5  6  1  0
  6  7  2  0
  7  8  1  0
  8  9  2  0
  9 10  1  0
 10 11  1  0
 11 12  2  0
 11 13  1  0
 13 14  1  0
 14 15  2  0
 15 16  1  0
 16 17  1  0
 17 18  2  0
 18 19  1  0
 19 20  2  0
 20 21  1  0
 21 22  1  0
 22 23  1  0
 22 24  1  0
 22 25  1  0
 21 26  2  0
 16 27  1  0
 27 28  2  0
 28 29  1  0
  9 30  1  0
 30 31  2  0
 31  6  1  0
 28 14  1  0
 26 17  1  0
  1 32  1  0
  1 33  1  0
  1 34  1  0
  2 35  1  0
  2 36  1  0
  3 37  1  0
  3 38  1  0
  4 39  1  0
  5 40  1  0
  5 41  1  0
  7 42  1  0
  8 43  1  0
 10 44  1  0
 13 45  1  0
 13 46  1  0
 18 47  1  0
 19 48  1  0
 26 49  1  0
 27 50  1  0
 29 51  1  0
 29 52  1  0
 29 53  1  0
 30 54  1  0
 31 55  1  0
M  END
$$$$
