
     RDKit          3D

 52 56  0  0  0  0  0  0  0  0999 V2000
   -8.7277    2.5741   -2.9500 N   0  0  0  0  0  0  0  0  0  0  0  0
   -7.6290    2.2940   -2.7039 C   0  0  0  0  0  0  0  0  0  0  0  0
   -6.2777    1.9472   -2.4016 C   0  0  0  0  0  0  0  0  0  0  0  0
   -5.2280    2.6264   -2.9888 C   0  0  0  0  0  0  0  0  0  0  0  0
   -3.9272    2.3493   -2.7456 N   0  0  0  0  0  0  0  0  0  0  0  0
   -3.6331    1.3373   -1.8785 C   0  0  0  0  0  0  0  0  0  0  0  0
   -2.1841    1.1066   -1.7167 C   0  0  0  0  0  0  0  0  0  0  0  0
   -1.6040   -0.1532   -1.9390 C   0  0  0  0  0  0  0  0  0  0  0  0
   -0.2300   -0.3573   -1.7739 C   0  0  0  0  0  0  0  0  0  0  0  0
    0.6055    0.7012   -1.3980 C   0  0  0  0  0  0  0  0  0  0  0  0
    2.0867    0.4823   -1.1973 C   0  0  0  0  0  0  0  0  0  0  0  0
    2.3615    0.3642    0.2285 N   0  0  0  0  0  0  0  0  0  0  0  0
    3.6317   -0.0257    0.6575 C   0  0  0  0  0  0  0  0  0  0  0  0
    4.7905    0.1276   -0.1076 C   0  0  0  0  0  0  0  0  0  0  0  0
    6.0495   -0.2192    0.4030 C   0  0  0  0  0  0  0  0  0  0  0  0
    6.1915   -0.6979    1.7108 C   0  0  0  0  0  0  0  0  0  0  0  0
    7.5173   -1.0492    2.2106 C   0  0  0  0  0  0  0  0  0  0  0  0
    7.8582   -1.1420    3.5502 C   0  0  0  0  0  0  0  0  0  0  0  0
    9.5184   -1.5702    3.6321 S   0  0  0  0  0  0  0  0  0  0  0  0
    9.6899   -1.6012    1.9702 N   0  0  0  0  0  0  0  0  0  0  0  0
    8.5697   -1.3058    1.3332 N   0  0  0  0  0  0  0  0  0  0  0  0
    5.0399   -0.8173    2.4956 C   0  0  0  0  0  0  0  0  0  0  0  0
    3.7845   -0.4710    1.9768 C   0  0  0  0  0  0  0  0  0  0  0  0
    0.0392    1.9627   -1.1794 C   0  0  0  0  0  0  0  0  0  0  0  0
   -1.3346    2.1623   -1.3459 C   0  0  0  0  0  0  0  0  0  0  0  0
   -4.6341    0.5971   -1.2156 C   0  0  0  0  0  0  0  0  0  0  0  0
   -4.3571   -0.4598   -0.2275 C   0  0  0  0  0  0  0  0  0  0  0  0
   -4.7612   -1.7856   -0.4600 C   0  0  0  0  0  0  0  0  0  0  0  0
   -4.5044   -2.7889    0.4777 C   0  0  0  0  0  0  0  0  0  0  0  0
   -3.8434   -2.4816    1.6644 C   0  0  0  0  0  0  0  0  0  0  0  0
   -3.4406   -1.1725    1.9157 C   0  0  0  0  0  0  0  0  0  0  0  0
   -3.6978   -0.1692    0.9783 C   0  0  0  0  0  0  0  0  0  0  0  0
   -5.9730    0.9252   -1.5044 C   0  0  0  0  0  0  0  0  0  0  0  0
   -5.3946    3.4378   -3.6936 H   0  0  0  0  0  0  0  0  0  0  0  0
   -2.2220   -0.9937   -2.2480 H   0  0  0  0  0  0  0  0  0  0  0  0
    0.1809   -1.3502   -1.9437 H   0  0  0  0  0  0  0  0  0  0  0  0
    2.3989   -0.4240   -1.7314 H   0  0  0  0  0  0  0  0  0  0  0  0
    2.6314    1.3289   -1.6328 H   0  0  0  0  0  0  0  0  0  0  0  0
    1.6196   -0.1268    0.7217 H   0  0  0  0  0  0  0  0  0  0  0  0
    4.7477    0.5218   -1.1185 H   0  0  0  0  0  0  0  0  0  0  0  0
    6.9223   -0.0951   -0.2362 H   0  0  0  0  0  0  0  0  0  0  0  0
    7.2676   -0.9834    4.4389 H   0  0  0  0  0  0  0  0  0  0  0  0
    5.0857   -1.1828    3.5173 H   0  0  0  0  0  0  0  0  0  0  0  0
    2.9134   -0.5567    2.6227 H   0  0  0  0  0  0  0  0  0  0  0  0
    0.6674    2.7974   -0.8744 H   0  0  0  0  0  0  0  0  0  0  0  0
   -1.7485    3.1558   -1.1814 H   0  0  0  0  0  0  0  0  0  0  0  0
   -5.2735   -2.0498   -1.3832 H   0  0  0  0  0  0  0  0  0  0  0  0
   -4.8199   -3.8104    0.2806 H   0  0  0  0  0  0  0  0  0  0  0  0
   -3.6431   -3.2620    2.3942 H   0  0  0  0  0  0  0  0  0  0  0  0
   -2.9257   -0.9293    2.8417 H   0  0  0  0  0  0  0  0  0  0  0  0
   -3.3760    0.8474    1.1974 H   0  0  0  0  0  0  0  0  0  0  0  0
   -6.7790    0.3851   -1.0085 H   0  0  0  0  0  0  0  0  0  0  0  0
  1  2  3  0
  2  3  1  0
  3  4  2  0
  4  5  1  0
  5  6  2  0
  6  7  1  0
  7  8  2  0
  8  9  1  0
  9 10  2  0
 10 11  1  0
 11 12  1  0
 12 13  1  0
 13 14  2  0
 14 15  1  0
 15 16  2  0
 16 17  1  0
 17 18  2  0
 18 19  1  0
 19 20  1  0
 20 21  2  0
 16 22  1  0
 22 23  2  0
 10 24  1  0
 24 25  2  0
  6 26  1  0
 26 27  1  0
 27 28  2  0
 28 29  1  0
 29 30  2  0
 30 31  1  0
 31 32  2  0
 26 33  2  0
 33  3  1  0
 25  7  1  0
 32 27  1  0
 23 13  1  0
 21 17  1  0
  4 34  1  0
  8 35  1  0
  9 36  1  0
 11 37  1  0
 11 38  1  0
 12 39  1  0
 14 40  1  0
 15 41  1  0
 18 42  1  0
 22 43  1  0
 23 44  1  0
 24 45  1  0
 25 46  1  0
 28 47  1  0
 29 48  1  0
 30 49  1  0
 31 50  1  0
 32 51  1  0
 33 52  1  0
M  END
$$$$
