
     RDKit          3D

 49 52  0  0  0  0  0  0  0  0999 V2000
   -4.2752    2.7546    1.3576 C   0  0  0  0  0  0  0  0  0  0  0  0
   -3.2214    1.7927    0.8304 C   0  0  0  0  0  0  0  0  0  0  0  0
   -2.2232    2.5748    0.1593 O   0  0  0  0  0  0  0  0  0  0  0  0
   -3.7823    0.7477   -0.1618 C   0  0  0  0  0  0  0  0  0  0  0  0
   -4.9380   -0.1129    0.3375 C   0  0  0  0  0  0  0  0  0  0  0  0
   -4.4867   -0.9862    1.4946 C   0  0  0  0  0  0  0  0  0  0  0  0
   -3.1567   -1.6172    1.1968 C   0  0  0  0  0  0  0  0  0  0  0  0
   -2.7157   -2.6844    1.9893 C   0  0  0  0  0  0  0  0  0  0  0  0
   -1.4801   -3.2771    1.7480 C   0  0  0  0  0  0  0  0  0  0  0  0
   -0.6715   -2.8061    0.7138 C   0  0  0  0  0  0  0  0  0  0  0  0
   -1.0783   -1.7318   -0.0982 C   0  0  0  0  0  0  0  0  0  0  0  0
   -0.1868   -1.2575   -1.1748 C   0  0  0  0  0  0  0  0  0  0  0  0
   -0.6115   -1.2225   -2.5050 C   0  0  0  0  0  0  0  0  0  0  0  0
    0.2644   -0.7652   -3.4722 C   0  0  0  0  0  0  0  0  0  0  0  0
    1.5228   -0.3525   -3.2126 N   0  0  0  0  0  0  0  0  0  0  0  0
    1.9373   -0.3994   -1.9287 C   0  0  0  0  0  0  0  0  0  0  0  0
    3.2465    0.0502   -1.7587 N   0  0  0  0  0  0  0  0  0  0  0  0
    4.0250   -0.0097   -0.6312 C   0  0  0  0  0  0  0  0  0  0  0  0
    3.7211   -0.5394    0.4308 O   0  0  0  0  0  0  0  0  0  0  0  0
    5.2506    0.6030   -0.8392 N   0  0  0  0  0  0  0  0  0  0  0  0
    6.2181    0.7225    0.2083 C   0  0  0  0  0  0  0  0  0  0  0  0
    6.4296    2.0358    0.9092 C   0  0  0  0  0  0  0  0  0  0  0  0
    7.4885    1.4989   -0.0083 C   0  0  0  0  0  0  0  0  0  0  0  0
    1.1206   -0.8330   -0.8935 C   0  0  0  0  0  0  0  0  0  0  0  0
   -2.3313   -1.1357    0.1667 C   0  0  0  0  0  0  0  0  0  0  0  0
   -2.6965   -0.0765   -0.6311 O   0  0  0  0  0  0  0  0  0  0  0  0
   -3.8067    3.5389    1.9624 H   0  0  0  0  0  0  0  0  0  0  0  0
   -4.7902    3.2606    0.5337 H   0  0  0  0  0  0  0  0  0  0  0  0
   -5.0178    2.2445    1.9771 H   0  0  0  0  0  0  0  0  0  0  0  0
   -2.7148    1.3097    1.6725 H   0  0  0  0  0  0  0  0  0  0  0  0
   -1.6119    1.9330   -0.2525 H   0  0  0  0  0  0  0  0  0  0  0  0
   -4.1277    1.2868   -1.0533 H   0  0  0  0  0  0  0  0  0  0  0  0
   -5.2656   -0.7653   -0.4835 H   0  0  0  0  0  0  0  0  0  0  0  0
   -5.8034    0.4919    0.6264 H   0  0  0  0  0  0  0  0  0  0  0  0
   -5.2417   -1.7601    1.6759 H   0  0  0  0  0  0  0  0  0  0  0  0
   -4.3975   -0.3877    2.4089 H   0  0  0  0  0  0  0  0  0  0  0  0
   -3.3356   -3.0599    2.8007 H   0  0  0  0  0  0  0  0  0  0  0  0
   -1.1426   -4.1064    2.3647 H   0  0  0  0  0  0  0  0  0  0  0  0
    0.2896   -3.2880    0.5400 H   0  0  0  0  0  0  0  0  0  0  0  0
   -1.6109   -1.5413   -2.7833 H   0  0  0  0  0  0  0  0  0  0  0  0
   -0.0338   -0.7178   -4.5156 H   0  0  0  0  0  0  0  0  0  0  0  0
    3.6804    0.3012   -2.6322 H   0  0  0  0  0  0  0  0  0  0  0  0
    5.2842    1.2883   -1.5808 H   0  0  0  0  0  0  0  0  0  0  0  0
    6.3019   -0.1769    0.8164 H   0  0  0  0  0  0  0  0  0  0  0  0
    5.8543    2.8942    0.5837 H   0  0  0  0  0  0  0  0  0  0  0  0
    6.6137    2.0075    1.9772 H   0  0  0  0  0  0  0  0  0  0  0  0
    7.6412    1.9995   -0.9565 H   0  0  0  0  0  0  0  0  0  0  0  0
    8.3971    1.1094    0.4372 H   0  0  0  0  0  0  0  0  0  0  0  0
    1.4685   -0.8353    0.1336 H   0  0  0  0  0  0  0  0  0  0  0  0
  1  2  1  0
  2  3  1  0
  2  4  1  0
  4  5  1  0
  5  6  1  0
  6  7  1  0
  7  8  2  0
  8  9  1  0
  9 10  2  0
 10 11  1  0
 11 12  1  0
 12 13  2  0
 13 14  1  0
 14 15  2  0
 15 16  1  0
 16 17  1  0
 17 18  1  0
 18 19  2  0
 18 20  1  0
 20 21  1  0
 21 22  1  0
 22 23  1  0
 16 24  2  0
 11 25  2  0
 25 26  1  0
 26  4  1  0
 25  7  1  0
 24 12  1  0
 23 21  1  0
  1 27  1  0
  1 28  1  0
  1 29  1  0
  2 30  1  0
  3 31  1  0
  4 32  1  0
  5 33  1  0
  5 34  1  0
  6 35  1  0
  6 36  1  0
  8 37  1  0
  9 38  1  0
 10 39  1  0
 13 40  1  0
 14 41  1  0
 17 42  1  0
 20 43  1  0
 21 44  1  0
 22 45  1  0
 22 46  1  0
 23 47  1  0
 23 48  1  0
 24 49  1  0
M  END
$$$$
