
     RDKit          3D

 38 41  0  0  0  0  0  0  0  0999 V2000
   -2.0635    1.6117   -2.3817 O   0  0  0  0  0  0  0  0  0  0  0  0
   -2.7454    1.0400   -1.5446 C   0  0  0  0  0  0  0  0  0  0  0  0
   -4.1140    1.1556   -1.5290 N   0  0  0  0  0  0  0  0  0  0  0  0
   -4.9044    0.4519   -0.6195 C   0  0  0  0  0  0  0  0  0  0  0  0
   -6.2925    0.5823   -0.6572 C   0  0  0  0  0  0  0  0  0  0  0  0
   -7.0648   -0.1344    0.2554 C   0  0  0  0  0  0  0  0  0  0  0  0
   -8.7786    0.0150    0.2232 Cl  0  0  0  0  0  0  0  0  0  0  0  0
   -6.4619   -0.9713    1.1939 C   0  0  0  0  0  0  0  0  0  0  0  0
   -5.0701   -1.0936    1.2212 C   0  0  0  0  0  0  0  0  0  0  0  0
   -4.2790   -0.3845    0.3155 C   0  0  0  0  0  0  0  0  0  0  0  0
   -2.8854   -0.5306    0.3805 N   0  0  0  0  0  0  0  0  0  0  0  0
   -2.1353    0.1317   -0.4593 C   0  0  0  0  0  0  0  0  0  0  0  0
   -0.6539   -0.0199   -0.3622 C   0  0  0  0  0  0  0  0  0  0  0  0
   -0.1361   -1.2311    0.1163 C   0  0  0  0  0  0  0  0  0  0  0  0
    1.2451   -1.4145    0.2401 C   0  0  0  0  0  0  0  0  0  0  0  0
    2.1317   -0.3843   -0.0915 C   0  0  0  0  0  0  0  0  0  0  0  0
    3.5769   -0.6238    0.0246 C   0  0  0  0  0  0  0  0  0  0  0  0
    4.4397    0.2876    0.5043 C   0  0  0  0  0  0  0  0  0  0  0  0
    5.8185    0.1290    0.6502 N   0  0  0  0  0  0  0  0  0  0  0  0
    6.6874    1.0744    1.1559 C   0  0  0  0  0  0  0  0  0  0  0  0
    7.9389    0.5091    1.1219 C   0  0  0  0  0  0  0  0  0  0  0  0
    7.8830   -0.7558    0.6118 N   0  0  0  0  0  0  0  0  0  0  0  0
    6.6124   -0.9565    0.3390 C   0  0  0  0  0  0  0  0  0  0  0  0
    1.6119    0.8250   -0.5695 C   0  0  0  0  0  0  0  0  0  0  0  0
    0.2293    1.0109   -0.6946 C   0  0  0  0  0  0  0  0  0  0  0  0
   -4.5278    1.7465   -2.2366 H   0  0  0  0  0  0  0  0  0  0  0  0
   -6.7723    1.2302   -1.3841 H   0  0  0  0  0  0  0  0  0  0  0  0
   -7.0649   -1.5294    1.9056 H   0  0  0  0  0  0  0  0  0  0  0  0
   -4.5955   -1.7432    1.9524 H   0  0  0  0  0  0  0  0  0  0  0  0
   -0.8048   -2.0440    0.3930 H   0  0  0  0  0  0  0  0  0  0  0  0
    1.6171   -2.3679    0.6098 H   0  0  0  0  0  0  0  0  0  0  0  0
    3.9063   -1.6117   -0.2868 H   0  0  0  0  0  0  0  0  0  0  0  0
    4.0764    1.2571    0.8352 H   0  0  0  0  0  0  0  0  0  0  0  0
    6.3458    2.0436    1.4889 H   0  0  0  0  0  0  0  0  0  0  0  0
    8.8759    0.9489    1.4387 H   0  0  0  0  0  0  0  0  0  0  0  0
    6.2095   -1.8657   -0.0847 H   0  0  0  0  0  0  0  0  0  0  0  0
    2.2740    1.6377   -0.8604 H   0  0  0  0  0  0  0  0  0  0  0  0
   -0.1296    1.9739   -1.0481 H   0  0  0  0  0  0  0  0  0  0  0  0
  1  2  2  0
  2  3  1  0
  3  4  1  0
  4  5  2  0
  5  6  1  0
  6  7  1  0
  6  8  2  0
  8  9  1  0
  9 10  2  0
 10 11  1  0
 11 12  2  0
 12 13  1  0
 13 14  2  0
 14 15  1  0
 15 16  2  0
 16 17  1  0
 17 18  2  3
 18 19  1  0
 19 20  1  0
 20 21  2  0
 21 22  1  0
 22 23  2  0
 16 24  1  0
 24 25  2  0
 12  2  1  0
 25 13  1  0
 10  4  1  0
 23 19  1  0
  3 26  1  0
  5 27  1  0
  8 28  1  0
  9 29  1  0
 14 30  1  0
 15 31  1  0
 17 32  1  0
 18 33  1  0
 20 34  1  0
 21 35  1  0
 23 36  1  0
 24 37  1  0
 25 38  1  0
M  END
$$$$
