
     RDKit          3D

 48 51  0  0  0  0  0  0  0  0999 V2000
   -6.7163   -1.0264    0.4972 C   0  0  0  0  0  0  0  0  0  0  0  0
   -6.2087   -0.0431   -0.5251 C   0  0  0  0  0  0  0  0  0  0  0  0
   -7.1629    0.7104   -1.2390 C   0  0  0  0  0  0  0  0  0  0  0  0
   -6.7672    1.6093   -2.2246 C   0  0  0  0  0  0  0  0  0  0  0  0
   -7.9485    2.5130   -3.0878 Cl  0  0  0  0  0  0  0  0  0  0  0  0
   -5.4211    1.7734   -2.5159 C   0  0  0  0  0  0  0  0  0  0  0  0
   -4.4657    1.0409   -1.8049 C   0  0  0  0  0  0  0  0  0  0  0  0
   -4.8285    0.1356   -0.7879 C   0  0  0  0  0  0  0  0  0  0  0  0
   -3.8324   -0.5664   -0.0804 N   0  0  0  0  0  0  0  0  0  0  0  0
   -3.8536   -0.9731    1.2609 N   0  0  0  0  0  0  0  0  0  0  0  0
   -2.4716   -1.0520    1.1894 C   0  0  0  0  0  0  0  0  0  0  0  0
   -1.4165   -1.2101    1.9767 N   0  0  0  0  0  0  0  0  0  0  0  0
   -0.2503   -0.9634    1.3174 C   0  0  0  0  0  0  0  0  0  0  0  0
   -0.1635   -0.5024   -0.0148 C   0  0  0  0  0  0  0  0  0  0  0  0
    1.1362   -0.2335   -0.6731 C   0  0  0  0  0  0  0  0  0  0  0  0
    1.2220   -0.3270   -1.8923 O   0  0  0  0  0  0  0  0  0  0  0  0
    2.1881    0.1450    0.1363 N   0  0  0  0  0  0  0  0  0  0  0  0
    3.5215    0.3826   -0.4103 C   0  0  1  0  0  0  0  0  0  0  0  0
    4.3330    1.3045    0.5175 C   0  0  0  0  0  0  0  0  0  0  0  0
    5.1532    0.5034    1.5244 C   0  0  0  0  0  0  0  0  0  0  0  0
    6.1732   -0.4194    0.8349 C   0  0  2  0  0  0  0  0  0  0  0  0
    7.4876    0.2200    0.7797 N   0  0  0  0  0  0  0  0  0  0  0  0
    5.7403   -0.8323   -0.5821 C   0  0  0  0  0  0  0  0  0  0  0  0
    4.2250   -0.9620   -0.6788 C   0  0  0  0  0  0  0  0  0  0  0  0
   -1.3451   -0.3029   -0.7496 C   0  0  0  0  0  0  0  0  0  0  0  0
   -2.4921   -0.5810   -0.0877 C   0  0  0  0  0  0  0  0  0  0  0  0
   -7.7917   -1.2020    0.3811 H   0  0  0  0  0  0  0  0  0  0  0  0
   -6.5511   -0.6433    1.5086 H   0  0  0  0  0  0  0  0  0  0  0  0
   -6.2287   -1.9991    0.3777 H   0  0  0  0  0  0  0  0  0  0  0  0
   -8.2232    0.5833   -1.0302 H   0  0  0  0  0  0  0  0  0  0  0  0
   -5.1031    2.4678   -3.2888 H   0  0  0  0  0  0  0  0  0  0  0  0
   -3.4208    1.2017   -2.0535 H   0  0  0  0  0  0  0  0  0  0  0  0
   -4.0870   -0.2264    1.9150 H   0  0  0  0  0  0  0  0  0  0  0  0
    0.6378   -1.1656    1.9092 H   0  0  0  0  0  0  0  0  0  0  0  0
    2.0589    0.2716    1.1306 H   0  0  0  0  0  0  0  0  0  0  0  0
    3.3883    0.9074   -1.3651 H   0  0  0  0  0  0  0  0  0  0  0  0
    3.6748    2.0069    1.0427 H   0  0  0  0  0  0  0  0  0  0  0  0
    5.0166    1.9135   -0.0880 H   0  0  0  0  0  0  0  0  0  0  0  0
    5.6499    1.1823    2.2287 H   0  0  0  0  0  0  0  0  0  0  0  0
    4.4728   -0.1084    2.1316 H   0  0  0  0  0  0  0  0  0  0  0  0
    6.2768   -1.3198    1.4525 H   0  0  0  0  0  0  0  0  0  0  0  0
    8.1517   -0.3987    0.3140 H   0  0  0  0  0  0  0  0  0  0  0  0
    7.4455    1.0653    0.2113 H   0  0  0  0  0  0  0  0  0  0  0  0
    6.2180   -1.7825   -0.8501 H   0  0  0  0  0  0  0  0  0  0  0  0
    6.0756   -0.0978   -1.3269 H   0  0  0  0  0  0  0  0  0  0  0  0
    3.9437   -1.3307   -1.6726 H   0  0  0  0  0  0  0  0  0  0  0  0
    3.8868   -1.7240    0.0362 H   0  0  0  0  0  0  0  0  0  0  0  0
   -1.3279    0.0555   -1.7703 H   0  0  0  0  0  0  0  0  0  0  0  0
  1  2  1  0
  2  3  2  0
  3  4  1  0
  4  5  1  0
  4  6  2  0
  6  7  1  0
  7  8  2  0
  8  9  1  0
  9 10  1  0
 10 11  1  0
 11 12  2  0
 12 13  1  0
 13 14  2  0
 14 15  1  0
 15 16  2  0
 15 17  1  0
 17 18  1  0
 18 19  1  0
 19 20  1  0
 20 21  1  0
 21 22  1  0
 21 23  1  0
 23 24  1  0
 14 25  1  0
 25 26  2  0
  8  2  1  0
 26  9  1  0
 26 11  1  0
 24 18  1  0
  1 27  1  0
  1 28  1  0
  1 29  1  0
  3 30  1  0
  6 31  1  0
  7 32  1  0
 10 33  1  0
 13 34  1  0
 17 35  1  0
 18 36  1  6
 19 37  1  0
 19 38  1  0
 20 39  1  0
 20 40  1  0
 21 41  1  1
 22 42  1  0
 22 43  1  0
 23 44  1  0
 23 45  1  0
 24 46  1  0
 24 47  1  0
 25 48  1  0
M  END
$$$$
