
     RDKit          3D

 43 45  0  0  0  0  0  0  0  0999 V2000
    5.9456   -1.0856    1.7683 C   0  0  0  0  0  0  0  0  0  0  0  0
    4.4491   -1.1605    1.7140 C   0  0  0  0  0  0  0  0  0  0  0  0
    3.7331   -0.2736    0.9138 C   0  0  0  0  0  0  0  0  0  0  0  0
    2.3377   -0.3520    0.8821 C   0  0  0  0  0  0  0  0  0  0  0  0
    1.5953    0.5718    0.0107 C   0  0  0  0  0  0  0  0  0  0  0  0
    0.3333    0.9726    0.2296 C   0  0  0  0  0  0  0  0  0  0  0  0
   -0.3492    1.9121   -0.6697 C   0  0  0  0  0  0  0  0  0  0  0  0
   -0.5730    3.2151   -0.1996 C   0  0  0  0  0  0  0  0  0  0  0  0
   -1.2273    4.1505   -1.0014 C   0  0  0  0  0  0  0  0  0  0  0  0
   -1.6602    3.7831   -2.2693 C   0  0  0  0  0  0  0  0  0  0  0  0
   -2.2883    4.6848   -3.0345 F   0  0  0  0  0  0  0  0  0  0  0  0
   -1.4558    2.4971   -2.7538 C   0  0  0  0  0  0  0  0  0  0  0  0
   -0.7987    1.5562   -1.9586 C   0  0  0  0  0  0  0  0  0  0  0  0
   -0.6361    0.2226   -2.4531 N   0  0  0  0  0  0  0  0  0  0  0  0
   -2.0013   -0.7684   -2.5880 S   0  0  0  0  0  0  0  0  0  0  0  0
   -2.9875   -0.1202   -3.4252 O   0  0  0  0  0  0  0  0  0  0  0  0
   -1.5066   -2.0932   -2.8997 O   0  0  0  0  0  0  0  0  0  0  0  0
   -2.6343   -0.8145   -0.9260 C   0  0  0  0  0  0  0  0  0  0  0  0
   -3.6075    0.1069   -0.5277 C   0  0  0  0  0  0  0  0  0  0  0  0
   -4.1032    0.0597    0.7748 C   0  0  0  0  0  0  0  0  0  0  0  0
   -3.6414   -0.9126    1.6641 C   0  0  0  0  0  0  0  0  0  0  0  0
   -2.6877   -1.8462    1.2543 C   0  0  0  0  0  0  0  0  0  0  0  0
   -2.1831   -1.8034   -0.0453 C   0  0  0  0  0  0  0  0  0  0  0  0
    1.7141   -1.3416    1.6421 C   0  0  0  0  0  0  0  0  0  0  0  0
    2.5024   -2.1834    2.4089 C   0  0  0  0  0  0  0  0  0  0  0  0
    3.8482   -2.1121    2.4629 N   0  0  0  0  0  0  0  0  0  0  0  0
    6.2619   -0.1044    2.1357 H   0  0  0  0  0  0  0  0  0  0  0  0
    6.3686   -1.2509    0.7726 H   0  0  0  0  0  0  0  0  0  0  0  0
    6.3501   -1.8483    2.4415 H   0  0  0  0  0  0  0  0  0  0  0  0
    4.2641    0.4730    0.3307 H   0  0  0  0  0  0  0  0  0  0  0  0
    2.1460    0.9558   -0.8472 H   0  0  0  0  0  0  0  0  0  0  0  0
   -0.2396    0.6591    1.0982 H   0  0  0  0  0  0  0  0  0  0  0  0
   -0.2359    3.5097    0.7925 H   0  0  0  0  0  0  0  0  0  0  0  0
   -1.4015    5.1619   -0.6466 H   0  0  0  0  0  0  0  0  0  0  0  0
   -1.8096    2.2440   -3.7490 H   0  0  0  0  0  0  0  0  0  0  0  0
    0.1588   -0.3061   -2.0952 H   0  0  0  0  0  0  0  0  0  0  0  0
   -3.9808    0.8582   -1.2206 H   0  0  0  0  0  0  0  0  0  0  0  0
   -4.8581    0.7743    1.0949 H   0  0  0  0  0  0  0  0  0  0  0  0
   -4.0385   -0.9518    2.6761 H   0  0  0  0  0  0  0  0  0  0  0  0
   -2.3488   -2.6141    1.9457 H   0  0  0  0  0  0  0  0  0  0  0  0
   -1.4513   -2.5423   -0.3643 H   0  0  0  0  0  0  0  0  0  0  0  0
    0.6391   -1.4755    1.6446 H   0  0  0  0  0  0  0  0  0  0  0  0
    2.0577   -2.9660    3.0170 H   0  0  0  0  0  0  0  0  0  0  0  0
  1  2  1  0
  2  3  2  0
  3  4  1  0
  4  5  1  0
  5  6  2  0
  6  7  1  0
  7  8  2  0
  8  9  1  0
  9 10  2  0
 10 11  1  0
 10 12  1  0
 12 13  2  0
 13 14  1  0
 14 15  1  0
 15 16  2  0
 15 17  2  0
 15 18  1  0
 18 19  2  0
 19 20  1  0
 20 21  2  0
 21 22  1  0
 22 23  2  0
  4 24  2  0
 24 25  1  0
 25 26  2  0
 26  2  1  0
 13  7  1  0
 23 18  1  0
  1 27  1  0
  1 28  1  0
  1 29  1  0
  3 30  1  0
  5 31  1  0
  6 32  1  0
  8 33  1  0
  9 34  1  0
 12 35  1  0
 14 36  1  0
 19 37  1  0
 20 38  1  0
 21 39  1  0
 22 40  1  0
 23 41  1  0
 24 42  1  0
 25 43  1  0
M  END
$$$$
