
     RDKit          3D

 56 57  0  0  0  0  0  0  0  0999 V2000
    1.4602    1.5881   -3.9172 C   0  0  0  0  0  0  0  0  0  0  0  0
    0.5523    0.5453   -3.2824 C   0  0  0  0  0  0  0  0  0  0  0  0
    1.1566   -0.0854   -2.0249 C   0  0  0  0  0  0  0  0  0  0  0  0
    1.3265    0.8666   -0.9207 N   0  0  0  0  0  0  0  0  0  0  0  0
    2.7017    1.2455   -0.5904 C   0  0  0  0  0  0  0  0  0  0  0  0
    3.3599    0.2429    0.3336 C   0  0  0  0  0  0  0  0  0  0  0  0
    3.1796    0.3249    1.7004 C   0  0  0  0  0  0  0  0  0  0  0  0
    3.7840   -0.6542    2.4504 C   0  0  0  0  0  0  0  0  0  0  0  0
    4.5123   -1.6532    1.9213 N   0  0  0  0  0  0  0  0  0  0  0  0
    4.6307   -1.6595    0.5834 C   0  0  0  0  0  0  0  0  0  0  0  0
    5.5583   -2.9570   -0.1995 S   0  0  0  0  0  0  0  0  0  0  0  0
    6.3388   -3.7102    1.2471 C   0  0  0  0  0  0  0  0  0  0  0  0
    4.0793   -0.7500   -0.2377 N   0  0  0  0  0  0  0  0  0  0  0  0
    0.3191    1.3557   -0.1112 C   0  0  0  0  0  0  0  0  0  0  0  0
    0.5337    2.1333    0.8171 O   0  0  0  0  0  0  0  0  0  0  0  0
   -0.9427    0.9319   -0.4097 N   0  0  0  0  0  0  0  0  0  0  0  0
   -2.0828    1.2858    0.4214 C   0  0  2  0  0  0  0  0  0  0  0  0
   -2.0721    0.6298    1.8434 C   0  0  0  0  0  0  0  0  0  0  0  0
   -2.2918   -0.8364    1.9187 N   0  0  0  0  0  0  0  0  0  0  0  0
   -2.7515   -1.2008    3.2631 C   0  0  0  0  0  0  0  0  0  0  0  0
   -1.0736   -1.5902    1.6105 C   0  0  0  0  0  0  0  0  0  0  0  0
   -3.4028    1.0551   -0.2993 C   0  0  0  0  0  0  0  0  0  0  0  0
   -4.4637    1.9591   -0.1173 C   0  0  0  0  0  0  0  0  0  0  0  0
   -5.6958    1.7463   -0.7422 C   0  0  0  0  0  0  0  0  0  0  0  0
   -5.8804    0.6260   -1.5504 C   0  0  0  0  0  0  0  0  0  0  0  0
   -7.3992    0.3652   -2.3140 Cl  0  0  0  0  0  0  0  0  0  0  0  0
   -4.8461   -0.2817   -1.7430 C   0  0  0  0  0  0  0  0  0  0  0  0
   -3.6227   -0.0614   -1.1176 C   0  0  0  0  0  0  0  0  0  0  0  0
   -2.6342   -0.9434   -1.3351 F   0  0  0  0  0  0  0  0  0  0  0  0
    1.0158    1.9579   -4.8466 H   0  0  0  0  0  0  0  0  0  0  0  0
    2.4400    1.1633   -4.1564 H   0  0  0  0  0  0  0  0  0  0  0  0
    1.6067    2.4454   -3.2534 H   0  0  0  0  0  0  0  0  0  0  0  0
    0.3673   -0.2493   -4.0151 H   0  0  0  0  0  0  0  0  0  0  0  0
   -0.4170    1.0049   -3.0626 H   0  0  0  0  0  0  0  0  0  0  0  0
    2.1246   -0.5382   -2.2690 H   0  0  0  0  0  0  0  0  0  0  0  0
    0.5171   -0.9057   -1.6822 H   0  0  0  0  0  0  0  0  0  0  0  0
    2.7254    2.2383   -0.1257 H   0  0  0  0  0  0  0  0  0  0  0  0
    3.2782    1.3316   -1.5191 H   0  0  0  0  0  0  0  0  0  0  0  0
    2.5895    1.1089    2.1587 H   0  0  0  0  0  0  0  0  0  0  0  0
    3.6944   -0.6655    3.5330 H   0  0  0  0  0  0  0  0  0  0  0  0
    6.9450   -2.9786    1.7879 H   0  0  0  0  0  0  0  0  0  0  0  0
    6.9959   -4.5183    0.9143 H   0  0  0  0  0  0  0  0  0  0  0  0
    5.5881   -4.1360    1.9188 H   0  0  0  0  0  0  0  0  0  0  0  0
   -1.0415    0.0640   -0.9107 H   0  0  0  0  0  0  0  0  0  0  0  0
   -1.9893    2.3692    0.5834 H   0  0  0  0  0  0  0  0  0  0  0  0
   -2.8842    1.1219    2.3979 H   0  0  0  0  0  0  0  0  0  0  0  0
   -1.1496    0.8963    2.3754 H   0  0  0  0  0  0  0  0  0  0  0  0
   -3.6989   -0.7014    3.4958 H   0  0  0  0  0  0  0  0  0  0  0  0
   -2.0207   -0.9353    4.0356 H   0  0  0  0  0  0  0  0  0  0  0  0
   -2.9474   -2.2771    3.3262 H   0  0  0  0  0  0  0  0  0  0  0  0
   -1.2489   -2.6659    1.7325 H   0  0  0  0  0  0  0  0  0  0  0  0
   -0.7709   -1.4612    0.5701 H   0  0  0  0  0  0  0  0  0  0  0  0
   -0.2345   -1.3074    2.2572 H   0  0  0  0  0  0  0  0  0  0  0  0
   -4.3377    2.8352    0.5164 H   0  0  0  0  0  0  0  0  0  0  0  0
   -6.5063    2.4549   -0.5910 H   0  0  0  0  0  0  0  0  0  0  0  0
   -4.9748   -1.1582   -2.3690 H   0  0  0  0  0  0  0  0  0  0  0  0
  1  2  1  0
  2  3  1  0
  3  4  1  0
  4  5  1  0
  5  6  1  0
  6  7  2  0
  7  8  1  0
  8  9  2  0
  9 10  1  0
 10 11  1  0
 11 12  1  0
 10 13  2  0
  4 14  1  0
 14 15  2  0
 14 16  1  0
 16 17  1  0
 17 18  1  0
 18 19  1  0
 19 20  1  0
 19 21  1  0
 17 22  1  0
 22 23  2  0
 23 24  1  0
 24 25  2  0
 25 26  1  0
 25 27  1  0
 27 28  2  0
 28 29  1  0
 13  6  1  0
 28 22  1  0
  1 30  1  0
  1 31  1  0
  1 32  1  0
  2 33  1  0
  2 34  1  0
  3 35  1  0
  3 36  1  0
  5 37  1  0
  5 38  1  0
  7 39  1  0
  8 40  1  0
 12 41  1  0
 12 42  1  0
 12 43  1  0
 16 44  1  0
 17 45  1  1
 18 46  1  0
 18 47  1  0
 20 48  1  0
 20 49  1  0
 20 50  1  0
 21 51  1  0
 21 52  1  0
 21 53  1  0
 23 54  1  0
 24 55  1  0
 27 56  1  0
M  END
$$$$
