
     RDKit          3D

 40 43  0  0  0  0  0  0  0  0999 V2000
   -5.5670    0.6798   -1.3792 C   0  0  0  0  0  0  0  0  0  0  0  0
   -4.4086   -0.1491   -0.9074 C   0  0  0  0  0  0  0  0  0  0  0  0
   -3.4965    0.4006    0.0105 C   0  0  0  0  0  0  0  0  0  0  0  0
   -2.3971   -0.3381    0.4737 C   0  0  0  0  0  0  0  0  0  0  0  0
   -1.4600    0.2451    1.4189 C   0  0  0  0  0  0  0  0  0  0  0  0
   -1.8574    0.8295    2.6050 C   0  0  0  0  0  0  0  0  0  0  0  0
   -0.7358    1.2502    3.2684 N   0  0  0  0  0  0  0  0  0  0  0  0
    0.3907    0.9576    2.5348 C   0  0  0  0  0  0  0  0  0  0  0  0
    1.7377    1.2021    2.8179 C   0  0  0  0  0  0  0  0  0  0  0  0
    2.6851    0.7926    1.8710 C   0  0  0  0  0  0  0  0  0  0  0  0
    2.3092    0.1641    0.6774 C   0  0  0  0  0  0  0  0  0  0  0  0
    3.3051   -0.2562   -0.2956 C   0  0  0  0  0  0  0  0  0  0  0  0
    3.2830   -1.3038   -1.2474 C   0  0  0  0  0  0  0  0  0  0  0  0
    4.3985   -1.3631   -1.9804 N   0  0  0  0  0  0  0  0  0  0  0  0
    5.1383   -0.3462   -1.5056 N   0  0  0  0  0  0  0  0  0  0  0  0
    6.4373   -0.0877   -2.0766 C   0  0  0  0  0  0  0  0  0  0  0  0
    4.5304    0.3463   -0.4987 C   0  0  0  0  0  0  0  0  0  0  0  0
    0.9462   -0.0700    0.4248 C   0  0  0  0  0  0  0  0  0  0  0  0
   -0.0318    0.3256    1.3653 C   0  0  0  0  0  0  0  0  0  0  0  0
   -2.2092   -1.6447    0.0144 C   0  0  0  0  0  0  0  0  0  0  0  0
   -3.1067   -2.2028   -0.8958 C   0  0  0  0  0  0  0  0  0  0  0  0
   -4.1934   -1.4591   -1.3507 C   0  0  0  0  0  0  0  0  0  0  0  0
   -5.0174   -2.0860   -2.2417 O   0  0  0  0  0  0  0  0  0  0  0  0
   -6.5122    0.1892   -1.1256 H   0  0  0  0  0  0  0  0  0  0  0  0
   -5.5739    1.6699   -0.9111 H   0  0  0  0  0  0  0  0  0  0  0  0
   -5.5110    0.8265   -2.4626 H   0  0  0  0  0  0  0  0  0  0  0  0
   -3.6354    1.4214    0.3619 H   0  0  0  0  0  0  0  0  0  0  0  0
   -2.8380    0.9684    3.0407 H   0  0  0  0  0  0  0  0  0  0  0  0
   -0.7297    1.7076    4.1694 H   0  0  0  0  0  0  0  0  0  0  0  0
    2.0472    1.6885    3.7372 H   0  0  0  0  0  0  0  0  0  0  0  0
    3.7358    0.9667    2.0927 H   0  0  0  0  0  0  0  0  0  0  0  0
    2.5014   -2.0291   -1.4324 H   0  0  0  0  0  0  0  0  0  0  0  0
    7.0576   -0.9769   -1.9390 H   0  0  0  0  0  0  0  0  0  0  0  0
    6.8937    0.7671   -1.5715 H   0  0  0  0  0  0  0  0  0  0  0  0
    6.3093    0.1317   -3.1395 H   0  0  0  0  0  0  0  0  0  0  0  0
    5.0063    1.1976   -0.0332 H   0  0  0  0  0  0  0  0  0  0  0  0
    0.6243   -0.5391   -0.5003 H   0  0  0  0  0  0  0  0  0  0  0  0
   -1.3722   -2.2412    0.3687 H   0  0  0  0  0  0  0  0  0  0  0  0
   -2.9600   -3.2196   -1.2499 H   0  0  0  0  0  0  0  0  0  0  0  0
   -5.7238   -1.4786   -2.5086 H   0  0  0  0  0  0  0  0  0  0  0  0
  1  2  1  0
  2  3  2  0
  3  4  1  0
  4  5  1  0
  5  6  2  0
  6  7  1  0
  7  8  1  0
  8  9  2  0
  9 10  1  0
 10 11  2  0
 11 12  1  0
 12 13  1  0
 13 14  2  0
 14 15  1  0
 15 16  1  0
 15 17  1  0
 11 18  1  0
 18 19  2  0
  4 20  2  0
 20 21  1  0
 21 22  2  0
 22 23  1  0
 22  2  1  0
 19  5  1  0
 19  8  1  0
 17 12  2  0
  1 24  1  0
  1 25  1  0
  1 26  1  0
  3 27  1  0
  6 28  1  0
  7 29  1  0
  9 30  1  0
 10 31  1  0
 13 32  1  0
 16 33  1  0
 16 34  1  0
 16 35  1  0
 17 36  1  0
 18 37  1  0
 20 38  1  0
 21 39  1  0
 23 40  1  0
M  END
$$$$
