
     RDKit          3D

 33 34  0  0  0  0  0  0  0  0999 V2000
   -3.8951   -2.8167   -1.3470 O   0  0  0  0  0  0  0  0  0  0  0  0
   -2.7739   -2.3383   -1.1885 C   0  0  0  0  0  0  0  0  0  0  0  0
   -2.6023   -0.9029   -0.8806 C   0  0  0  0  0  0  0  0  0  0  0  0
   -3.7282   -0.0716   -0.7676 C   0  0  0  0  0  0  0  0  0  0  0  0
   -5.0126   -0.5204   -0.9322 O   0  0  0  0  0  0  0  0  0  0  0  0
   -3.5848    1.2804   -0.4751 C   0  0  0  0  0  0  0  0  0  0  0  0
   -2.3090    1.7954   -0.2897 C   0  0  0  0  0  0  0  0  0  0  0  0
   -2.1141    3.1123    0.0082 O   0  0  0  0  0  0  0  0  0  0  0  0
   -1.1784    0.9857   -0.3974 C   0  0  0  0  0  0  0  0  0  0  0  0
   -1.3116   -0.3723   -0.7057 C   0  0  0  0  0  0  0  0  0  0  0  0
   -0.2617   -1.2470   -0.8189 O   0  0  0  0  0  0  0  0  0  0  0  0
    1.0675   -0.7203   -0.9650 C   0  0  0  0  0  0  0  0  0  0  0  0
    1.7799   -0.5002    0.3548 C   0  0  0  0  0  0  0  0  0  0  0  0
    1.3385   -1.1685    1.5138 C   0  0  0  0  0  0  0  0  0  0  0  0
    1.9564   -0.9630    2.7493 C   0  0  0  0  0  0  0  0  0  0  0  0
    3.0344   -0.0916    2.8535 C   0  0  0  0  0  0  0  0  0  0  0  0
    3.5071    0.5607    1.7166 C   0  0  0  0  0  0  0  0  0  0  0  0
    2.9031    0.3473    0.4656 C   0  0  0  0  0  0  0  0  0  0  0  0
    3.5214    1.0679   -0.6747 C   0  0  0  0  0  0  0  0  0  0  0  0
    4.0880    2.1427   -0.6148 O   0  0  0  0  0  0  0  0  0  0  0  0
    3.4789    0.3670   -1.8200 O   0  0  0  0  0  0  0  0  0  0  0  0
   -1.8715   -2.9651   -1.2717 H   0  0  0  0  0  0  0  0  0  0  0  0
   -4.9764   -1.4847   -1.1301 H   0  0  0  0  0  0  0  0  0  0  0  0
   -4.4691    1.9041   -0.3927 H   0  0  0  0  0  0  0  0  0  0  0  0
   -2.9791    3.5529    0.0661 H   0  0  0  0  0  0  0  0  0  0  0  0
   -0.2135    1.4486   -0.2179 H   0  0  0  0  0  0  0  0  0  0  0  0
    1.0422    0.1814   -1.5868 H   0  0  0  0  0  0  0  0  0  0  0  0
    1.6286   -1.4805   -1.5211 H   0  0  0  0  0  0  0  0  0  0  0  0
    0.4941   -1.8544    1.4680 H   0  0  0  0  0  0  0  0  0  0  0  0
    1.5891   -1.4818    3.6319 H   0  0  0  0  0  0  0  0  0  0  0  0
    3.5113    0.0753    3.8161 H   0  0  0  0  0  0  0  0  0  0  0  0
    4.3593    1.2328    1.8059 H   0  0  0  0  0  0  0  0  0  0  0  0
    3.9814    0.9248   -2.4521 H   0  0  0  0  0  0  0  0  0  0  0  0
  1  2  2  0
  2  3  1  0
  3  4  2  0
  4  5  1  0
  4  6  1  0
  6  7  2  0
  7  8  1  0
  7  9  1  0
  9 10  2  0
 10 11  1  0
 11 12  1  0
 12 13  1  0
 13 14  2  0
 14 15  1  0
 15 16  2  0
 16 17  1  0
 17 18  2  0
 18 19  1  0
 19 20  2  0
 19 21  1  0
 10  3  1  0
 18 13  1  0
  2 22  1  0
  5 23  1  0
  6 24  1  0
  8 25  1  0
  9 26  1  0
 12 27  1  0
 12 28  1  0
 14 29  1  0
 15 30  1  0
 16 31  1  0
 17 32  1  0
 21 33  1  0
M  END
$$$$
