
     RDKit          3D

 42 45  0  0  0  0  0  0  0  0999 V2000
    5.2948   -0.4180    2.4437 N   0  0  0  0  0  0  0  0  0  0  0  0
    3.9467   -0.9558    2.3038 C   0  0  0  0  0  0  0  0  0  0  0  0
    3.5188   -1.5614    0.9955 C   0  0  0  0  0  0  0  0  0  0  0  0
    2.8372   -0.3223    1.5177 C   0  0  0  0  0  0  0  0  0  0  0  0
    3.1786    1.1625    0.5513 S   0  0  0  0  0  0  0  0  0  0  0  0
    2.5848    2.2727    1.2646 O   0  0  0  0  0  0  0  0  0  0  0  0
    4.5820    1.1810    0.1894 O   0  0  0  0  0  0  0  0  0  0  0  0
    2.3417    1.0040   -0.9277 N   0  0  0  0  0  0  0  0  0  0  0  0
    0.9184    0.9131   -0.8327 C   0  0  0  0  0  0  0  0  0  0  0  0
    0.3299   -0.3503   -0.8388 C   0  0  0  0  0  0  0  0  0  0  0  0
   -1.0577   -0.4913   -0.7116 C   0  0  0  0  0  0  0  0  0  0  0  0
   -1.6909   -1.8196   -0.7303 C   0  0  0  0  0  0  0  0  0  0  0  0
   -1.2555   -2.8453    0.1208 C   0  0  0  0  0  0  0  0  0  0  0  0
   -1.8838   -4.0825    0.0665 C   0  0  0  0  0  0  0  0  0  0  0  0
   -2.9018   -4.3720   -0.7687 N   0  0  0  0  0  0  0  0  0  0  0  0
   -3.2954   -3.3708   -1.5678 C   0  0  0  0  0  0  0  0  0  0  0  0
   -4.3192   -3.6971   -2.3939 O   0  0  0  0  0  0  0  0  0  0  0  0
   -2.7497   -2.1045   -1.5984 C   0  0  0  0  0  0  0  0  0  0  0  0
   -1.8278    0.6776   -0.5678 C   0  0  0  0  0  0  0  0  0  0  0  0
   -1.2512    1.9640   -0.5435 C   0  0  0  0  0  0  0  0  0  0  0  0
   -2.1394    3.1341   -0.3761 C   0  0  0  0  0  0  0  0  0  0  0  0
   -3.4571    3.0580   -0.4014 N   0  0  0  0  0  0  0  0  0  0  0  0
   -4.0226    4.3022   -0.2090 C   0  0  0  0  0  0  0  0  0  0  0  0
   -5.7220    4.4909   -0.1971 Cl  0  0  0  0  0  0  0  0  0  0  0  0
   -3.1254    5.3313   -0.0349 C   0  0  0  0  0  0  0  0  0  0  0  0
   -1.5282    4.7270   -0.1132 S   0  0  0  0  0  0  0  0  0  0  0  0
    0.1404    2.0616   -0.6803 C   0  0  0  0  0  0  0  0  0  0  0  0
    5.5556    0.1806    1.6491 H   0  0  0  0  0  0  0  0  0  0  0  0
    5.9952   -1.1594    2.4635 H   0  0  0  0  0  0  0  0  0  0  0  0
    3.6232   -1.4869    3.1991 H   0  0  0  0  0  0  0  0  0  0  0  0
    4.1844   -1.4809    0.1431 H   0  0  0  0  0  0  0  0  0  0  0  0
    2.9677   -2.4939    1.0283 H   0  0  0  0  0  0  0  0  0  0  0  0
    1.8356   -0.4047    1.9139 H   0  0  0  0  0  0  0  0  0  0  0  0
    2.6607    1.7630   -1.5337 H   0  0  0  0  0  0  0  0  0  0  0  0
    0.9569   -1.2290   -0.9740 H   0  0  0  0  0  0  0  0  0  0  0  0
   -0.4492   -2.6866    0.8296 H   0  0  0  0  0  0  0  0  0  0  0  0
   -1.5728   -4.8949    0.7176 H   0  0  0  0  0  0  0  0  0  0  0  0
   -4.4625   -4.6217   -2.1225 H   0  0  0  0  0  0  0  0  0  0  0  0
   -3.1394   -1.3670   -2.2914 H   0  0  0  0  0  0  0  0  0  0  0  0
   -2.9102    0.5860   -0.4563 H   0  0  0  0  0  0  0  0  0  0  0  0
   -3.3289    6.3789    0.1313 H   0  0  0  0  0  0  0  0  0  0  0  0
    0.6380    3.0276   -0.6575 H   0  0  0  0  0  0  0  0  0  0  0  0
  1  2  1  0
  2  3  1  0
  3  4  1  0
  4  5  1  0
  5  6  2  0
  5  7  2  0
  5  8  1  0
  8  9  1  0
  9 10  2  0
 10 11  1  0
 11 12  1  0
 12 13  2  0
 13 14  1  0
 14 15  2  0
 15 16  1  0
 16 17  1  0
 16 18  2  0
 11 19  2  0
 19 20  1  0
 20 21  1  0
 21 22  2  0
 22 23  1  0
 23 24  1  0
 23 25  2  0
 25 26  1  0
 20 27  2  0
  4  2  1  0
 27  9  1  0
 18 12  1  0
 26 21  1  0
  1 28  1  0
  1 29  1  0
  2 30  1  0
  3 31  1  0
  3 32  1  0
  4 33  1  0
  8 34  1  0
 10 35  1  0
 13 36  1  0
 14 37  1  0
 17 38  1  0
 18 39  1  0
 19 40  1  0
 25 41  1  0
 27 42  1  0
M  END
$$$$
