
     RDKit          3D

 44 47  0  0  0  0  0  0  0  0999 V2000
   -2.5257    3.1032   -1.7249 C   0  0  0  0  0  0  0  0  0  0  0  0
   -2.6324    2.7616   -0.2903 C   0  0  0  0  0  0  0  0  0  0  0  0
   -3.6691    2.9347    0.4930 N   0  0  0  0  0  0  0  0  0  0  0  0
   -3.2331    2.4835    1.7093 C   0  0  0  0  0  0  0  0  0  0  0  0
   -2.0295    1.8100    1.6669 C   0  0  0  0  0  0  0  0  0  0  0  0
   -1.5856    2.2970    0.4424 N   0  0  0  0  0  0  0  0  0  0  0  0
   -1.1412    0.9685    0.6999 C   0  0  0  0  0  0  0  0  0  0  0  0
    0.2802    0.8221    1.0646 N   0  0  0  0  0  0  0  0  0  0  0  0
    0.6443   -0.2598    2.3043 S   0  0  0  0  0  0  0  0  0  0  0  0
   -0.5808   -0.7705    2.8816 O   0  0  0  0  0  0  0  0  0  0  0  0
    1.6052    0.4334    3.1391 O   0  0  0  0  0  0  0  0  0  0  0  0
    1.4689   -1.6110    1.4475 C   0  0  0  0  0  0  0  0  0  0  0  0
    2.5218   -1.1000    0.4982 C   0  0  0  0  0  0  0  0  0  0  0  0
    2.3297   -1.1931   -0.8863 C   0  0  0  0  0  0  0  0  0  0  0  0
    3.3049   -0.7266   -1.7733 C   0  0  0  0  0  0  0  0  0  0  0  0
    4.4732   -0.1274   -1.3009 C   0  0  0  0  0  0  0  0  0  0  0  0
    5.4943    0.2261   -2.1884 N   0  0  0  0  0  0  0  0  0  0  0  0
    4.6959   -0.0985    0.0765 C   0  0  0  0  0  0  0  0  0  0  0  0
    3.7261   -0.5637    0.9702 C   0  0  0  0  0  0  0  0  0  0  0  0
   -1.7702   -0.1627   -0.0956 C   0  0  0  0  0  0  0  0  0  0  0  0
   -2.7142   -1.0452    0.4631 C   0  0  0  0  0  0  0  0  0  0  0  0
   -3.2656   -2.0969   -0.2755 C   0  0  0  0  0  0  0  0  0  0  0  0
   -2.8699   -2.2855   -1.5925 C   0  0  0  0  0  0  0  0  0  0  0  0
   -3.3771   -3.2972   -2.3510 O   0  0  0  0  0  0  0  0  0  0  0  0
   -1.9342   -1.4450   -2.1769 C   0  0  0  0  0  0  0  0  0  0  0  0
   -1.3894   -0.3961   -1.4327 C   0  0  0  0  0  0  0  0  0  0  0  0
   -3.1123    2.4001   -2.3241 H   0  0  0  0  0  0  0  0  0  0  0  0
   -2.9111    4.1115   -1.9042 H   0  0  0  0  0  0  0  0  0  0  0  0
   -1.4886    3.0691   -2.0733 H   0  0  0  0  0  0  0  0  0  0  0  0
   -3.8352    2.6388    2.5967 H   0  0  0  0  0  0  0  0  0  0  0  0
    0.7962    1.6911    1.2126 H   0  0  0  0  0  0  0  0  0  0  0  0
    1.9136   -2.2617    2.2072 H   0  0  0  0  0  0  0  0  0  0  0  0
    0.6949   -2.1807    0.9229 H   0  0  0  0  0  0  0  0  0  0  0  0
    1.4277   -1.6476   -1.2910 H   0  0  0  0  0  0  0  0  0  0  0  0
    3.1447   -0.8425   -2.8421 H   0  0  0  0  0  0  0  0  0  0  0  0
    6.1497    0.9057   -1.8155 H   0  0  0  0  0  0  0  0  0  0  0  0
    5.1711    0.4690   -3.1191 H   0  0  0  0  0  0  0  0  0  0  0  0
    5.6328    0.2865    0.4710 H   0  0  0  0  0  0  0  0  0  0  0  0
    3.9297   -0.5097    2.0388 H   0  0  0  0  0  0  0  0  0  0  0  0
   -3.0232   -0.9139    1.5000 H   0  0  0  0  0  0  0  0  0  0  0  0
   -3.9926   -2.7500    0.1972 H   0  0  0  0  0  0  0  0  0  0  0  0
   -4.0450   -3.7710   -1.8278 H   0  0  0  0  0  0  0  0  0  0  0  0
   -1.6296   -1.6046   -3.2073 H   0  0  0  0  0  0  0  0  0  0  0  0
   -0.6488    0.2489   -1.9018 H   0  0  0  0  0  0  0  0  0  0  0  0
  1  2  1  0
  2  3  2  0
  3  4  1  0
  4  5  2  0
  5  6  1  0
  6  7  1  0
  7  8  1  0
  8  9  1  0
  9 10  2  0
  9 11  2  0
  9 12  1  0
 12 13  1  0
 13 14  2  0
 14 15  1  0
 15 16  2  0
 16 17  1  0
 16 18  1  0
 18 19  2  0
  7 20  1  0
 20 21  2  0
 21 22  1  0
 22 23  2  0
 23 24  1  0
 23 25  1  0
 25 26  2  0
  6  2  1  0
 19 13  1  0
 26 20  1  0
  7  5  1  0
  1 27  1  0
  1 28  1  0
  1 29  1  0
  4 30  1  0
  8 31  1  0
 12 32  1  0
 12 33  1  0
 14 34  1  0
 15 35  1  0
 17 36  1  0
 17 37  1  0
 18 38  1  0
 19 39  1  0
 21 40  1  0
 22 41  1  0
 24 42  1  0
 25 43  1  0
 26 44  1  0
M  END
$$$$
