
     RDKit          3D

 48 50  0  0  0  0  0  0  0  0999 V2000
    1.0626   -4.1234   -1.9259 C   0  0  0  0  0  0  0  0  0  0  0  0
    1.1347   -2.7557   -2.5900 C   0  0  0  0  0  0  0  0  0  0  0  0
    0.2216   -1.7205   -1.9253 C   0  0  0  0  0  0  0  0  0  0  0  0
    0.5622   -1.4979   -0.5112 N   0  0  0  0  0  0  0  0  0  0  0  0
    1.8761   -0.8911   -0.2121 C   0  0  0  0  0  0  0  0  0  0  0  0
    2.0413    0.5524   -0.7213 C   0  0  0  0  0  0  0  0  0  0  0  0
    3.3129    1.0975   -0.3488 O   0  0  0  0  0  0  0  0  0  0  0  0
    3.3030    1.6724    0.9571 C   0  0  0  0  0  0  0  0  0  0  0  0
    4.6949    2.2036    1.2844 C   0  0  0  0  0  0  0  0  0  0  0  0
    4.7150    2.8278    2.5623 O   0  0  0  0  0  0  0  0  0  0  0  0
   -0.4745   -0.8743    0.2116 C   0  0  0  0  0  0  0  0  0  0  0  0
   -1.3884   -0.1067   -0.4390 N   0  0  0  0  0  0  0  0  0  0  0  0
   -2.3763    0.5223    0.2527 C   0  0  0  0  0  0  0  0  0  0  0  0
   -3.3273    1.3498   -0.5420 C   0  0  0  0  0  0  0  0  0  0  0  0
   -3.2585    1.4139   -1.9382 C   0  0  0  0  0  0  0  0  0  0  0  0
   -4.1683    2.2020   -2.6420 C   0  0  0  0  0  0  0  0  0  0  0  0
   -5.1324    2.9140   -1.9436 C   0  0  0  0  0  0  0  0  0  0  0  0
   -5.1466    2.8086   -0.5652 C   0  0  0  0  0  0  0  0  0  0  0  0
   -4.2772    2.0540    0.1411 N   0  0  0  0  0  0  0  0  0  0  0  0
   -2.5594    0.4676    1.5876 N   0  0  0  0  0  0  0  0  0  0  0  0
   -1.6595   -0.3112    2.1951 C   0  0  0  0  0  0  0  0  0  0  0  0
   -1.6344   -0.5540    3.5408 N   0  0  0  0  0  0  0  0  0  0  0  0
   -0.5995   -1.4029    3.8386 C   0  0  0  0  0  0  0  0  0  0  0  0
    0.0450   -1.7042    2.6568 C   0  0  0  0  0  0  0  0  0  0  0  0
   -0.6159   -1.0024    1.6062 C   0  0  0  0  0  0  0  0  0  0  0  0
    1.4285   -4.0875   -0.8952 H   0  0  0  0  0  0  0  0  0  0  0  0
    1.6800   -4.8413   -2.4753 H   0  0  0  0  0  0  0  0  0  0  0  0
    0.0349   -4.5001   -1.9143 H   0  0  0  0  0  0  0  0  0  0  0  0
    0.8316   -2.8611   -3.6388 H   0  0  0  0  0  0  0  0  0  0  0  0
    2.1737   -2.4102   -2.6028 H   0  0  0  0  0  0  0  0  0  0  0  0
    0.2668   -0.7827   -2.4924 H   0  0  0  0  0  0  0  0  0  0  0  0
   -0.8076   -2.0967   -2.0097 H   0  0  0  0  0  0  0  0  0  0  0  0
    2.0798   -0.9330    0.8634 H   0  0  0  0  0  0  0  0  0  0  0  0
    2.6738   -1.5075   -0.6433 H   0  0  0  0  0  0  0  0  0  0  0  0
    1.2353    1.2120   -0.3808 H   0  0  0  0  0  0  0  0  0  0  0  0
    2.0140    0.5558   -1.8158 H   0  0  0  0  0  0  0  0  0  0  0  0
    3.0077    0.9317    1.7081 H   0  0  0  0  0  0  0  0  0  0  0  0
    2.5771    2.4933    0.9967 H   0  0  0  0  0  0  0  0  0  0  0  0
    5.0293    2.9230    0.5290 H   0  0  0  0  0  0  0  0  0  0  0  0
    5.4208    1.3838    1.2873 H   0  0  0  0  0  0  0  0  0  0  0  0
    4.1866    3.6418    2.4956 H   0  0  0  0  0  0  0  0  0  0  0  0
   -2.5026    0.8527   -2.4800 H   0  0  0  0  0  0  0  0  0  0  0  0
   -4.1217    2.2555   -3.7259 H   0  0  0  0  0  0  0  0  0  0  0  0
   -5.8556    3.5354   -2.4593 H   0  0  0  0  0  0  0  0  0  0  0  0
   -5.8804    3.3444    0.0303 H   0  0  0  0  0  0  0  0  0  0  0  0
   -2.3001   -0.1626    4.1918 H   0  0  0  0  0  0  0  0  0  0  0  0
   -0.4191   -1.7239    4.8560 H   0  0  0  0  0  0  0  0  0  0  0  0
    0.8963   -2.3642    2.5503 H   0  0  0  0  0  0  0  0  0  0  0  0
  1  2  1  0
  2  3  1  0
  3  4  1  0
  4  5  1  0
  5  6  1  0
  6  7  1  0
  7  8  1  0
  8  9  1  0
  9 10  1  0
  4 11  1  0
 11 12  2  0
 12 13  1  0
 13 14  1  0
 14 15  2  0
 15 16  1  0
 16 17  2  0
 17 18  1  0
 18 19  2  0
 13 20  2  0
 20 21  1  0
 21 22  1  0
 22 23  1  0
 23 24  2  0
 24 25  1  0
 25 11  1  0
 19 14  1  0
 25 21  2  0
  1 26  1  0
  1 27  1  0
  1 28  1  0
  2 29  1  0
  2 30  1  0
  3 31  1  0
  3 32  1  0
  5 33  1  0
  5 34  1  0
  6 35  1  0
  6 36  1  0
  8 37  1  0
  8 38  1  0
  9 39  1  0
  9 40  1  0
 10 41  1  0
 15 42  1  0
 16 43  1  0
 17 44  1  0
 18 45  1  0
 22 46  1  0
 23 47  1  0
 24 48  1  0
M  END
$$$$
