
     RDKit          3D

 43 46  0  0  0  0  0  0  0  0999 V2000
   -3.5493   -3.1634   -1.6217 C   0  0  0  0  0  0  0  0  0  0  0  0
   -2.5608   -2.0817   -1.8732 C   0  0  0  0  0  0  0  0  0  0  0  0
   -2.0306   -1.8164   -3.0324 N   0  0  0  0  0  0  0  0  0  0  0  0
   -1.2550   -0.7464   -2.7878 C   0  0  0  0  0  0  0  0  0  0  0  0
   -1.2332   -0.3556   -1.4902 C   0  0  0  0  0  0  0  0  0  0  0  0
   -2.1627   -1.2970   -0.8557 N   0  0  0  0  0  0  0  0  0  0  0  0
   -1.5087   -0.3286   -0.0634 C   0  0  0  0  0  0  0  0  0  0  0  0
   -0.4868   -0.8709    0.8579 N   0  0  0  0  0  0  0  0  0  0  0  0
    1.0025   -0.0642    0.9161 S   0  0  0  0  0  0  0  0  0  0  0  0
    0.9196    1.1580    0.1490 O   0  0  0  0  0  0  0  0  0  0  0  0
    1.3429   -0.0544    2.3244 O   0  0  0  0  0  0  0  0  0  0  0  0
    2.0488   -1.2531    0.0654 C   0  0  0  0  0  0  0  0  0  0  0  0
    3.4641   -0.7436    0.0340 C   0  0  0  0  0  0  0  0  0  0  0  0
    4.3251   -0.9378    1.1154 C   0  0  0  0  0  0  0  0  0  0  0  0
    5.6144   -0.4390    1.0294 C   0  0  0  0  0  0  0  0  0  0  0  0
    6.0983    0.2190   -0.0460 N   0  0  0  0  0  0  0  0  0  0  0  0
    5.2636    0.4038   -1.0800 C   0  0  0  0  0  0  0  0  0  0  0  0
    5.7693    1.1091   -2.1680 N   0  0  0  0  0  0  0  0  0  0  0  0
    3.9503   -0.0485   -1.0796 C   0  0  0  0  0  0  0  0  0  0  0  0
   -2.4017    0.7724    0.4844 C   0  0  0  0  0  0  0  0  0  0  0  0
   -3.4880    0.4752    1.3339 C   0  0  0  0  0  0  0  0  0  0  0  0
   -4.3057    1.4813    1.8558 C   0  0  0  0  0  0  0  0  0  0  0  0
   -4.0465    2.8077    1.5444 C   0  0  0  0  0  0  0  0  0  0  0  0
   -4.8650    3.7578    2.0767 O   0  0  0  0  0  0  0  0  0  0  0  0
   -2.9827    3.1449    0.7198 C   0  0  0  0  0  0  0  0  0  0  0  0
   -2.1703    2.1325    0.1988 C   0  0  0  0  0  0  0  0  0  0  0  0
   -3.7764   -3.7013   -2.5475 H   0  0  0  0  0  0  0  0  0  0  0  0
   -3.1564   -3.8839   -0.8974 H   0  0  0  0  0  0  0  0  0  0  0  0
   -4.4842   -2.7486   -1.2315 H   0  0  0  0  0  0  0  0  0  0  0  0
   -0.7049   -0.2746   -3.5931 H   0  0  0  0  0  0  0  0  0  0  0  0
   -0.8244   -1.0001    1.8148 H   0  0  0  0  0  0  0  0  0  0  0  0
    1.6574   -1.3886   -0.9472 H   0  0  0  0  0  0  0  0  0  0  0  0
    1.9897   -2.2059    0.6007 H   0  0  0  0  0  0  0  0  0  0  0  0
    4.0043   -1.4507    2.0171 H   0  0  0  0  0  0  0  0  0  0  0  0
    6.3150   -0.5569    1.8512 H   0  0  0  0  0  0  0  0  0  0  0  0
    6.7464    1.3025   -1.9615 H   0  0  0  0  0  0  0  0  0  0  0  0
    5.6610    0.5932   -3.0323 H   0  0  0  0  0  0  0  0  0  0  0  0
    3.3123    0.1569   -1.9340 H   0  0  0  0  0  0  0  0  0  0  0  0
   -3.7075   -0.5571    1.5985 H   0  0  0  0  0  0  0  0  0  0  0  0
   -5.1392    1.2305    2.5061 H   0  0  0  0  0  0  0  0  0  0  0  0
   -4.5511    4.6318    1.7908 H   0  0  0  0  0  0  0  0  0  0  0  0
   -2.7623    4.1787    0.4726 H   0  0  0  0  0  0  0  0  0  0  0  0
   -1.3315    2.4131   -0.4384 H   0  0  0  0  0  0  0  0  0  0  0  0
  1  2  1  0
  2  3  2  0
  3  4  1  0
  4  5  2  0
  5  6  1  0
  6  7  1  0
  7  8  1  0
  8  9  1  0
  9 10  2  0
  9 11  2  0
  9 12  1  0
 12 13  1  0
 13 14  2  0
 14 15  1  0
 15 16  2  0
 16 17  1  0
 17 18  1  0
 17 19  2  0
  7 20  1  0
 20 21  2  0
 21 22  1  0
 22 23  2  0
 23 24  1  0
 23 25  1  0
 25 26  2  0
  6  2  1  0
 19 13  1  0
 26 20  1  0
  7  5  1  0
  1 27  1  0
  1 28  1  0
  1 29  1  0
  4 30  1  0
  8 31  1  0
 12 32  1  0
 12 33  1  0
 14 34  1  0
 15 35  1  0
 18 36  1  0
 18 37  1  0
 19 38  1  0
 21 39  1  0
 22 40  1  0
 24 41  1  0
 25 42  1  0
 26 43  1  0
M  END
$$$$
