
     RDKit          3D

 49 51  0  0  0  0  0  0  0  0999 V2000
    5.1285   -2.3619   -1.7946 C   0  0  0  0  0  0  0  0  0  0  0  0
    6.2795   -2.0694   -0.8467 C   0  0  0  0  0  0  0  0  0  0  0  0
    6.2083   -0.6965   -0.1696 C   0  0  0  0  0  0  0  0  0  0  0  0
    5.0228   -0.5308    0.7830 C   0  0  0  0  0  0  0  0  0  0  0  0
    3.7462   -0.0305    0.1182 C   0  0  0  0  0  0  0  0  0  0  0  0
    3.7376    0.4406   -1.0131 O   0  0  0  0  0  0  0  0  0  0  0  0
    2.6623   -0.1425    0.9686 N   0  0  0  0  0  0  0  0  0  0  0  0
    1.3055    0.1503    0.7153 C   0  0  0  0  0  0  0  0  0  0  0  0
    0.8393    0.5283   -0.5448 C   0  0  0  0  0  0  0  0  0  0  0  0
   -0.5205    0.7813   -0.7590 C   0  0  0  0  0  0  0  0  0  0  0  0
   -1.4568    0.6824    0.2785 C   0  0  0  0  0  0  0  0  0  0  0  0
   -2.8835    0.9682    0.0339 C   0  0  0  0  0  0  0  0  0  0  0  0
   -3.6726    1.6677    0.9391 C   0  0  0  0  0  0  0  0  0  0  0  0
   -5.0063    1.8861    0.6188 C   0  0  0  0  0  0  0  0  0  0  0  0
   -5.8125    2.5765    1.4872 O   0  0  0  0  0  0  0  0  0  0  0  0
   -5.5447    1.4119   -0.5863 C   0  0  0  0  0  0  0  0  0  0  0  0
   -6.8927    1.6000   -0.9628 C   0  0  0  0  0  0  0  0  0  0  0  0
   -7.3683    1.1082   -2.1763 C   0  0  0  0  0  0  0  0  0  0  0  0
   -6.5033    0.4266   -3.0225 C   0  0  0  0  0  0  0  0  0  0  0  0
   -5.1688    0.2413   -2.6490 C   0  0  0  0  0  0  0  0  0  0  0  0
   -4.6702    0.7213   -1.4446 C   0  0  0  0  0  0  0  0  0  0  0  0
   -3.3767    0.5100   -1.1437 N   0  0  0  0  0  0  0  0  0  0  0  0
   -0.9779    0.2996    1.5438 C   0  0  0  0  0  0  0  0  0  0  0  0
    0.3873    0.0214    1.7809 C   0  0  0  0  0  0  0  0  0  0  0  0
    0.8019   -0.3112    3.2009 C   0  0  0  0  0  0  0  0  0  0  0  0
    1.8015   -1.3814    3.2807 N   0  0  0  0  0  0  0  0  0  0  0  0
    5.3005   -3.3125   -2.3100 H   0  0  0  0  0  0  0  0  0  0  0  0
    4.1791   -2.4469   -1.2583 H   0  0  0  0  0  0  0  0  0  0  0  0
    5.0348   -1.5798   -2.5543 H   0  0  0  0  0  0  0  0  0  0  0  0
    6.3281   -2.8557   -0.0841 H   0  0  0  0  0  0  0  0  0  0  0  0
    7.2173   -2.1251   -1.4127 H   0  0  0  0  0  0  0  0  0  0  0  0
    7.1283   -0.5793    0.4174 H   0  0  0  0  0  0  0  0  0  0  0  0
    6.2241    0.0946   -0.9281 H   0  0  0  0  0  0  0  0  0  0  0  0
    5.2869    0.2206    1.5381 H   0  0  0  0  0  0  0  0  0  0  0  0
    4.8227   -1.4718    1.3084 H   0  0  0  0  0  0  0  0  0  0  0  0
    2.8312   -0.5416    1.8941 H   0  0  0  0  0  0  0  0  0  0  0  0
    1.5071    0.6220   -1.3956 H   0  0  0  0  0  0  0  0  0  0  0  0
   -0.8477    1.0632   -1.7593 H   0  0  0  0  0  0  0  0  0  0  0  0
   -3.2487    2.0450    1.8614 H   0  0  0  0  0  0  0  0  0  0  0  0
   -5.2830    2.8923    2.2374 H   0  0  0  0  0  0  0  0  0  0  0  0
   -7.5721    2.1346   -0.3021 H   0  0  0  0  0  0  0  0  0  0  0  0
   -8.4072    1.2584   -2.4571 H   0  0  0  0  0  0  0  0  0  0  0  0
   -6.8590    0.0375   -3.9728 H   0  0  0  0  0  0  0  0  0  0  0  0
   -4.4973   -0.2935   -3.3170 H   0  0  0  0  0  0  0  0  0  0  0  0
   -1.6837    0.1982    2.3669 H   0  0  0  0  0  0  0  0  0  0  0  0
   -0.0703   -0.6215    3.7878 H   0  0  0  0  0  0  0  0  0  0  0  0
    1.2051    0.5952    3.6663 H   0  0  0  0  0  0  0  0  0  0  0  0
    1.3884   -2.2237    2.8718 H   0  0  0  0  0  0  0  0  0  0  0  0
    1.9497   -1.6078    4.2654 H   0  0  0  0  0  0  0  0  0  0  0  0
  1  2  1  0
  2  3  1  0
  3  4  1  0
  4  5  1  0
  5  6  2  0
  5  7  1  0
  7  8  1  0
  8  9  2  0
  9 10  1  0
 10 11  2  0
 11 12  1  0
 12 13  2  0
 13 14  1  0
 14 15  1  0
 14 16  2  0
 16 17  1  0
 17 18  2  0
 18 19  1  0
 19 20  2  0
 20 21  1  0
 21 22  2  0
 11 23  1  0
 23 24  2  0
 24 25  1  0
 25 26  1  0
 24  8  1  0
 22 12  1  0
 21 16  1  0
  1 27  1  0
  1 28  1  0
  1 29  1  0
  2 30  1  0
  2 31  1  0
  3 32  1  0
  3 33  1  0
  4 34  1  0
  4 35  1  0
  7 36  1  0
  9 37  1  0
 10 38  1  0
 13 39  1  0
 15 40  1  0
 17 41  1  0
 18 42  1  0
 19 43  1  0
 20 44  1  0
 23 45  1  0
 25 46  1  0
 25 47  1  0
 26 48  1  0
 26 49  1  0
M  END
$$$$
