
     RDKit          3D

 51 53  0  0  0  0  0  0  0  0999 V2000
   -4.9706    3.4598   -2.0974 C   0  0  0  0  0  0  0  0  0  0  0  0
   -5.1070    1.9648   -2.3562 C   0  0  0  0  0  0  0  0  0  0  0  0
   -5.2992    1.3058   -1.0971 O   0  0  0  0  0  0  0  0  0  0  0  0
   -4.5060    0.1933   -0.9976 C   0  0  0  0  0  0  0  0  0  0  0  0
   -3.1666    0.3619   -0.6162 C   0  0  0  0  0  0  0  0  0  0  0  0
   -2.3137   -0.7417   -0.4718 C   0  0  0  0  0  0  0  0  0  0  0  0
   -0.9862   -0.5213   -0.1036 N   0  0  0  0  0  0  0  0  0  0  0  0
    0.0514   -1.3498    0.3111 C   0  0  0  0  0  0  0  0  0  0  0  0
   -0.1436   -2.6522    0.5715 N   0  0  0  0  0  0  0  0  0  0  0  0
    0.9209   -3.3516    1.0091 C   0  0  0  0  0  0  0  0  0  0  0  0
    2.1645   -2.8014    1.1782 C   0  0  0  0  0  0  0  0  0  0  0  0
    3.1983   -3.5434    1.6009 F   0  0  0  0  0  0  0  0  0  0  0  0
    2.3013   -1.4593    0.8663 C   0  0  0  0  0  0  0  0  0  0  0  0
    3.5405   -0.8342    1.0740 N   0  0  0  0  0  0  0  0  0  0  0  0
    3.7323    0.5110    0.5297 C   0  0  2  0  0  0  0  0  0  0  0  0
    3.8905    0.4621   -0.9994 C   0  0  0  0  0  0  0  0  0  0  0  0
    4.9262    1.1259    1.2505 C   0  0  0  0  0  0  0  0  0  0  0  0
    6.2307    1.0934    0.7338 C   0  0  0  0  0  0  0  0  0  0  0  0
    7.2949    1.6640    1.4401 C   0  0  0  0  0  0  0  0  0  0  0  0
    7.0753    2.2628    2.6776 C   0  0  0  0  0  0  0  0  0  0  0  0
    5.7916    2.2806    3.2185 C   0  0  0  0  0  0  0  0  0  0  0  0
    4.7264    1.7161    2.5128 C   0  0  0  0  0  0  0  0  0  0  0  0
    1.2419   -0.7346    0.4524 N   0  0  0  0  0  0  0  0  0  0  0  0
   -2.8643   -2.0109   -0.6714 C   0  0  0  0  0  0  0  0  0  0  0  0
   -4.2120   -2.1832   -1.0393 C   0  0  0  0  0  0  0  0  0  0  0  0
   -5.0490   -1.0812   -1.2051 C   0  0  0  0  0  0  0  0  0  0  0  0
   -6.3659   -1.1376   -1.5856 O   0  0  0  0  0  0  0  0  0  0  0  0
   -6.9836   -2.4151   -1.5802 C   0  0  0  0  0  0  0  0  0  0  0  0
   -4.7919    4.0095   -3.0266 H   0  0  0  0  0  0  0  0  0  0  0  0
   -4.1438    3.6490   -1.4028 H   0  0  0  0  0  0  0  0  0  0  0  0
   -5.8791    3.8587   -1.6389 H   0  0  0  0  0  0  0  0  0  0  0  0
   -4.2182    1.6023   -2.8948 H   0  0  0  0  0  0  0  0  0  0  0  0
   -5.9881    1.7840   -2.9865 H   0  0  0  0  0  0  0  0  0  0  0  0
   -2.8002    1.3715   -0.4254 H   0  0  0  0  0  0  0  0  0  0  0  0
   -0.6451    0.4272   -0.1663 H   0  0  0  0  0  0  0  0  0  0  0  0
    0.7439   -4.3988    1.2277 H   0  0  0  0  0  0  0  0  0  0  0  0
    4.3119   -1.4607    0.8601 H   0  0  0  0  0  0  0  0  0  0  0  0
    2.8635    1.1510    0.7442 H   0  0  0  0  0  0  0  0  0  0  0  0
    2.9621    0.1350   -1.4835 H   0  0  0  0  0  0  0  0  0  0  0  0
    4.6689   -0.2442   -1.3153 H   0  0  0  0  0  0  0  0  0  0  0  0
    4.1386    1.4499   -1.4037 H   0  0  0  0  0  0  0  0  0  0  0  0
    6.4496    0.6240   -0.2204 H   0  0  0  0  0  0  0  0  0  0  0  0
    8.2955    1.6262    1.0207 H   0  0  0  0  0  0  0  0  0  0  0  0
    7.8988    2.7095    3.2297 H   0  0  0  0  0  0  0  0  0  0  0  0
    5.6201    2.7301    4.1943 H   0  0  0  0  0  0  0  0  0  0  0  0
    3.7314    1.7166    2.9581 H   0  0  0  0  0  0  0  0  0  0  0  0
   -2.2513   -2.9017   -0.5665 H   0  0  0  0  0  0  0  0  0  0  0  0
   -4.5656   -3.2022   -1.2029 H   0  0  0  0  0  0  0  0  0  0  0  0
   -6.5612   -3.0570   -2.3534 H   0  0  0  0  0  0  0  0  0  0  0  0
   -6.9123   -2.8834   -0.5989 H   0  0  0  0  0  0  0  0  0  0  0  0
   -8.0464   -2.2803   -1.8094 H   0  0  0  0  0  0  0  0  0  0  0  0
  1  2  1  0
  2  3  1  0
  3  4  1  0
  4  5  2  0
  5  6  1  0
  6  7  1  0
  7  8  1  0
  8  9  2  0
  9 10  1  0
 10 11  2  0
 11 12  1  0
 11 13  1  0
 13 14  1  0
 14 15  1  0
 15 16  1  0
 15 17  1  0
 17 18  2  0
 18 19  1  0
 19 20  2  0
 20 21  1  0
 21 22  2  0
 13 23  2  0
  6 24  2  0
 24 25  1  0
 25 26  2  0
 26 27  1  0
 27 28  1  0
 26  4  1  0
 23  8  1  0
 22 17  1  0
  1 29  1  0
  1 30  1  0
  1 31  1  0
  2 32  1  0
  2 33  1  0
  5 34  1  0
  7 35  1  0
 10 36  1  0
 14 37  1  0
 15 38  1  6
 16 39  1  0
 16 40  1  0
 16 41  1  0
 18 42  1  0
 19 43  1  0
 20 44  1  0
 21 45  1  0
 22 46  1  0
 24 47  1  0
 25 48  1  0
 28 49  1  0
 28 50  1  0
 28 51  1  0
M  END
$$$$
