
     RDKit          3D

 64 66  0  0  0  0  0  0  0  0999 V2000
   -1.6030    1.0150   -1.5896 C   0  0  0  0  0  0  0  0  0  0  0  0
   -1.7004   -0.3974   -0.9693 C   0  0  2  0  0  0  0  0  0  0  0  0
   -2.7241   -1.2040   -1.8116 C   0  0  0  0  0  0  0  0  0  0  0  0
   -2.4191   -2.6940   -1.9893 C   0  0  0  0  0  0  0  0  0  0  0  0
   -1.1716   -2.9059   -2.8039 C   0  0  0  0  0  0  0  0  0  0  0  0
   -1.1942   -3.1333   -4.0764 N   0  0  0  0  0  0  0  0  0  0  0  0
   -2.0583   -0.2702    0.5490 C   0  0  1  0  0  0  0  0  0  0  0  0
   -2.4967   -1.5554    1.2590 C   0  0  0  0  0  0  0  0  0  0  0  0
   -1.2384   -2.7772    1.5629 S   0  0  0  0  0  0  0  0  0  0  0  0
   -0.6065   -2.3871    3.1761 C   0  0  0  0  0  0  0  0  0  0  0  0
   -0.1592   -2.6345    0.6057 O   0  0  0  0  0  0  0  0  0  0  0  0
   -1.9179   -4.0560    1.6831 O   0  0  0  0  0  0  0  0  0  0  0  0
   -1.0052    0.4526    1.2742 N   0  0  0  0  0  0  0  0  0  0  0  0
   -1.1997    1.0170    2.5124 C   0  0  0  0  0  0  0  0  0  0  0  0
   -2.2266    0.8192    3.1571 O   0  0  0  0  0  0  0  0  0  0  0  0
   -0.1341    1.8842    3.1007 C   0  0  0  0  0  0  0  0  0  0  0  0
   -0.5723    2.8307    4.0492 C   0  0  0  0  0  0  0  0  0  0  0  0
    0.3343    3.6609    4.7135 C   0  0  0  0  0  0  0  0  0  0  0  0
    1.6896    3.5462    4.4415 C   0  0  0  0  0  0  0  0  0  0  0  0
    2.5613    4.3387    5.0770 F   0  0  0  0  0  0  0  0  0  0  0  0
    2.1562    2.6186    3.5210 C   0  0  0  0  0  0  0  0  0  0  0  0
    1.2451    1.7858    2.8537 C   0  0  0  0  0  0  0  0  0  0  0  0
    1.8222    0.8541    1.8918 C   0  0  0  0  0  0  0  0  0  0  0  0
    1.6727    0.9740    0.6047 N   0  0  0  0  0  0  0  0  0  0  0  0
    2.3861   -0.0771    0.0738 C   0  0  0  0  0  0  0  0  0  0  0  0
    2.5801   -0.3426   -1.2255 C   0  0  0  0  0  0  0  0  0  0  0  0
    2.1136    0.4420   -2.3601 C   0  0  0  0  0  0  0  0  0  0  0  0
    2.2067    1.7829   -2.4090 C   0  0  0  0  0  0  0  0  0  0  0  0
    1.7669    2.5391   -3.5562 C   0  0  0  0  0  0  0  0  0  0  0  0
    1.4629    1.9339   -4.7119 C   0  0  0  0  0  0  0  0  0  0  0  0
    1.5304    0.4422   -4.8704 C   0  0  0  0  0  0  0  0  0  0  0  0
    1.5821   -0.3395   -3.5442 C   0  0  0  0  0  0  0  0  0  0  0  0
    2.9239   -0.8498    1.1671 C   0  0  0  0  0  0  0  0  0  0  0  0
    2.6171   -0.2903    2.3396 C   0  0  0  0  0  0  0  0  0  0  0  0
   -2.5651    1.5356   -1.5319 H   0  0  0  0  0  0  0  0  0  0  0  0
   -0.8533    1.6342   -1.0893 H   0  0  0  0  0  0  0  0  0  0  0  0
   -1.3146    0.9570   -2.6446 H   0  0  0  0  0  0  0  0  0  0  0  0
   -0.7071   -0.8451   -1.0684 H   0  0  0  0  0  0  0  0  0  0  0  0
   -3.7259   -1.0884   -1.3801 H   0  0  0  0  0  0  0  0  0  0  0  0
   -2.7868   -0.7725   -2.8201 H   0  0  0  0  0  0  0  0  0  0  0  0
   -2.3008   -3.2122   -1.0390 H   0  0  0  0  0  0  0  0  0  0  0  0
   -3.2605   -3.1650   -2.5100 H   0  0  0  0  0  0  0  0  0  0  0  0
   -0.2000   -2.8200   -2.2866 H   0  0  0  0  0  0  0  0  0  0  0  0
   -2.1598   -3.1791   -4.4223 H   0  0  0  0  0  0  0  0  0  0  0  0
   -2.9370    0.3898    0.5991 H   0  0  0  0  0  0  0  0  0  0  0  0
   -3.2879   -2.0546    0.6916 H   0  0  0  0  0  0  0  0  0  0  0  0
   -2.9464   -1.3399    2.2340 H   0  0  0  0  0  0  0  0  0  0  0  0
   -1.4365   -2.3634    3.8840 H   0  0  0  0  0  0  0  0  0  0  0  0
    0.0976   -3.1732    3.4601 H   0  0  0  0  0  0  0  0  0  0  0  0
   -0.0898   -1.4307    3.1478 H   0  0  0  0  0  0  0  0  0  0  0  0
   -0.1758    0.7165    0.7359 H   0  0  0  0  0  0  0  0  0  0  0  0
   -1.6339    2.9242    4.2779 H   0  0  0  0  0  0  0  0  0  0  0  0
   -0.0117    4.3904    5.4399 H   0  0  0  0  0  0  0  0  0  0  0  0
    3.2227    2.5651    3.3202 H   0  0  0  0  0  0  0  0  0  0  0  0
    3.1497   -1.2304   -1.4948 H   0  0  0  0  0  0  0  0  0  0  0  0
    2.6064    2.3527   -1.5737 H   0  0  0  0  0  0  0  0  0  0  0  0
    1.7308    3.6187   -3.4644 H   0  0  0  0  0  0  0  0  0  0  0  0
    1.1718    2.5231   -5.5757 H   0  0  0  0  0  0  0  0  0  0  0  0
    0.6650    0.0990   -5.4497 H   0  0  0  0  0  0  0  0  0  0  0  0
    2.4198    0.2044   -5.4670 H   0  0  0  0  0  0  0  0  0  0  0  0
    2.1745   -1.2487   -3.7073 H   0  0  0  0  0  0  0  0  0  0  0  0
    0.5663   -0.6682   -3.2971 H   0  0  0  0  0  0  0  0  0  0  0  0
    3.5060   -1.7495    1.0339 H   0  0  0  0  0  0  0  0  0  0  0  0
    2.8582   -0.5927    3.3402 H   0  0  0  0  0  0  0  0  0  0  0  0
  1  2  1  0
  2  3  1  0
  3  4  1  0
  4  5  1  0
  5  6  2  3
  2  7  1  0
  7  8  1  0
  8  9  1  0
  9 10  1  0
  9 11  2  0
  9 12  2  0
  7 13  1  0
 13 14  1  0
 14 15  2  0
 14 16  1  0
 16 17  2  0
 17 18  1  0
 18 19  2  0
 19 20  1  0
 19 21  1  0
 21 22  2  0
 22 23  1  0
 23 24  2  0
 24 25  1  0
 25 26  2  3
 26 27  1  0
 27 28  2  0
 28 29  1  0
 29 30  2  0
 30 31  1  0
 31 32  1  0
 25 33  1  0
 33 34  2  0
 22 16  1  0
 34 23  1  0
 32 27  1  0
  1 35  1  0
  1 36  1  0
  1 37  1  0
  2 38  1  1
  3 39  1  0
  3 40  1  0
  4 41  1  0
  4 42  1  0
  5 43  1  0
  6 44  1  0
  7 45  1  6
  8 46  1  0
  8 47  1  0
 10 48  1  0
 10 49  1  0
 10 50  1  0
 13 51  1  0
 17 52  1  0
 18 53  1  0
 21 54  1  0
 26 55  1  0
 28 56  1  0
 29 57  1  0
 30 58  1  0
 31 59  1  0
 31 60  1  0
 32 61  1  0
 32 62  1  0
 33 63  1  0
 34 64  1  0
M  END
$$$$
