
     RDKit          3D

 51 55  0  0  0  0  0  0  0  0999 V2000
    5.0370    0.4068    2.1391 C   0  0  0  0  0  0  0  0  0  0  0  0
    4.4230    0.7646    0.8706 N   0  0  0  0  0  0  0  0  0  0  0  0
    5.3498    0.9972   -0.2312 C   0  0  0  0  0  0  0  0  0  0  0  0
    3.0765    0.4745    0.7131 C   0  0  0  0  0  0  0  0  0  0  0  0
    2.3760   -0.0268    1.5872 O   0  0  0  0  0  0  0  0  0  0  0  0
    2.4820    0.8208   -0.5831 C   0  0  0  0  0  3  0  0  0  0  0  0
    1.4462   -0.0312   -1.2491 C   0  0  0  0  0  0  0  0  0  0  0  0
    0.1846   -0.2991   -0.3804 C   0  0  0  0  0  0  0  0  0  0  0  0
   -0.8746   -1.0129   -1.1396 N   0  0  0  0  0  0  0  0  0  0  0  0
   -1.6685   -0.1639   -1.9183 C   0  0  0  0  0  0  0  0  0  0  0  0
   -1.5787   -0.2114   -3.2750 N   0  0  0  0  0  0  0  0  0  0  0  0
   -2.3223    0.6292   -4.0183 C   0  0  0  0  0  0  0  0  0  0  0  0
   -3.1904    1.5578   -3.5948 N   0  0  0  0  0  0  0  0  0  0  0  0
   -3.2867    1.5565   -2.2586 C   0  0  0  0  0  0  0  0  0  0  0  0
   -4.1178    2.3823   -1.5553 N   0  0  0  0  0  0  0  0  0  0  0  0
   -4.0154    2.1140   -0.2166 C   0  0  0  0  0  0  0  0  0  0  0  0
   -3.0892    1.0968   -0.0549 C   0  0  0  0  0  0  0  0  0  0  0  0
   -2.7889    0.5276    1.2500 C   0  0  0  0  0  0  0  0  0  0  0  0
   -2.4483    1.3551    2.3283 C   0  0  0  0  0  0  0  0  0  0  0  0
   -2.1382    0.8038    3.5740 C   0  0  0  0  0  0  0  0  0  0  0  0
   -2.1655   -0.5800    3.7508 C   0  0  0  0  0  0  0  0  0  0  0  0
   -2.5090   -1.4151    2.6828 C   0  0  0  0  0  0  0  0  0  0  0  0
   -2.5315   -2.8374    2.8590 C   0  0  0  0  0  0  0  0  0  0  0  0
   -2.5567   -3.9882    3.0095 N   0  0  0  0  0  0  0  0  0  0  0  0
   -2.8267   -0.8599    1.4381 C   0  0  0  0  0  0  0  0  0  0  0  0
   -2.5991    0.7490   -1.3621 C   0  0  0  0  0  0  0  0  0  0  0  0
   -0.4050   -2.2460   -1.7947 C   0  0  0  0  0  0  0  0  0  0  0  0
    0.8565   -2.0013   -2.5705 C   0  0  2  0  0  0  0  0  0  0  0  0
    2.0933   -2.5068   -2.2759 C   0  0  0  0  0  0  0  0  0  0  0  0
    2.0525   -1.3185   -1.7221 C   0  0  0  0  0  0  0  0  0  0  0  0
    4.3058    0.4017    2.9537 H   0  0  0  0  0  0  0  0  0  0  0  0
    5.4749   -0.5928    2.0486 H   0  0  0  0  0  0  0  0  0  0  0  0
    5.8199    1.1327    2.3778 H   0  0  0  0  0  0  0  0  0  0  0  0
    4.8573    1.3616   -1.1350 H   0  0  0  0  0  0  0  0  0  0  0  0
    6.0935    1.7367    0.0811 H   0  0  0  0  0  0  0  0  0  0  0  0
    5.8504    0.0514   -0.4658 H   0  0  0  0  0  0  0  0  0  0  0  0
    2.7104    1.7956   -0.9968 H   0  0  0  0  0  0  0  0  0  0  0  0
    1.1362    0.5402   -2.1365 H   0  0  0  0  0  0  0  0  0  0  0  0
    0.4322   -0.9344    0.4792 H   0  0  0  0  0  0  0  0  0  0  0  0
   -0.1819    0.6483    0.0332 H   0  0  0  0  0  0  0  0  0  0  0  0
   -2.1991    0.5456   -5.0941 H   0  0  0  0  0  0  0  0  0  0  0  0
   -4.7290    3.0608   -1.9864 H   0  0  0  0  0  0  0  0  0  0  0  0
   -4.6248    2.6488    0.5002 H   0  0  0  0  0  0  0  0  0  0  0  0
   -2.4045    2.4348    2.2019 H   0  0  0  0  0  0  0  0  0  0  0  0
   -1.8639    1.4532    4.4022 H   0  0  0  0  0  0  0  0  0  0  0  0
   -1.9093   -1.0013    4.7205 H   0  0  0  0  0  0  0  0  0  0  0  0
   -3.0883   -1.5129    0.6065 H   0  0  0  0  0  0  0  0  0  0  0  0
   -0.2306   -2.9986   -1.0134 H   0  0  0  0  0  0  0  0  0  0  0  0
   -1.1778   -2.6725   -2.4470 H   0  0  0  0  0  0  0  0  0  0  0  0
    0.6975   -1.5229   -3.5281 H   0  0  0  0  0  0  0  0  0  0  0  0
    2.7660   -3.3134   -2.4623 H   0  0  0  0  0  0  0  0  0  0  0  0
  1  2  1  0
  2  3  1  0
  2  4  1  0
  4  5  2  0
  4  6  1  0
  6  7  1  0
  7  8  1  0
  8  9  1  0
  9 10  1  0
 10 11  2  0
 11 12  1  0
 12 13  2  0
 13 14  1  0
 14 15  1  0
 15 16  1  0
 16 17  2  0
 17 18  1  0
 18 19  2  0
 19 20  1  0
 20 21  2  0
 21 22  1  0
 22 23  1  0
 23 24  3  0
 22 25  2  0
 17 26  1  0
  9 27  1  0
 27 28  1  0
 28 29  1  0
 29 30  2  0
 30  7  1  0
 26 10  1  0
 30 28  1  0
 26 14  2  0
 25 18  1  0
  1 31  1  0
  1 32  1  0
  1 33  1  0
  3 34  1  0
  3 35  1  0
  3 36  1  0
  6 37  1  0
  7 38  1  0
  8 39  1  0
  8 40  1  0
 12 41  1  0
 15 42  1  0
 16 43  1  0
 19 44  1  0
 20 45  1  0
 21 46  1  0
 25 47  1  0
 27 48  1  0
 27 49  1  0
 28 50  1  6
 29 51  1  0
M  RAD  1   6   2
M  END
$$$$
