
     RDKit          3D

 33 34  0  0  0  0  0  0  0  0999 V2000
   -4.3165   -1.0915    0.2699 C   0  0  0  0  0  0  0  0  0  0  0  0
   -3.2036   -0.0646    0.5028 C   0  0  0  0  0  0  0  0  0  0  0  0
   -3.4184    1.1388   -0.4114 C   0  0  0  0  0  0  0  0  0  0  0  0
   -1.8309   -0.7433    0.3229 C   0  0  0  0  0  0  0  0  0  0  0  0
   -0.6130    0.1526    0.6113 C   0  0  0  0  0  0  0  0  0  0  0  0
   -0.0637    0.8599   -0.6278 C   0  0  0  0  0  0  0  0  0  0  0  0
    1.2441    1.5446   -0.2996 C   0  0  0  0  0  0  0  0  0  0  0  0
    1.3146    2.7657   -0.1846 O   0  0  0  0  0  0  0  0  0  0  0  0
    2.4743    0.7114   -0.1559 C   0  0  0  0  0  0  0  0  0  0  0  0
    3.7152    1.3389   -0.3403 C   0  0  0  0  0  0  0  0  0  0  0  0
    4.8973    0.5962   -0.2888 C   0  0  0  0  0  0  0  0  0  0  0  0
    4.8518   -0.7778   -0.0564 C   0  0  0  0  0  0  0  0  0  0  0  0
    3.6249   -1.4108    0.1426 C   0  0  0  0  0  0  0  0  0  0  0  0
    2.4389   -0.6645    0.1119 C   0  0  0  0  0  0  0  0  0  0  0  0
    1.1772   -1.3789    0.3796 C   0  0  0  0  0  0  0  0  0  0  0  0
    0.9034   -2.4880   -0.0385 O   0  0  0  0  0  0  0  0  0  0  0  0
    0.4227   -0.6474    1.2289 O   0  0  0  0  0  0  0  0  0  0  0  0
   -5.3013   -0.6469    0.4494 H   0  0  0  0  0  0  0  0  0  0  0  0
   -4.2979   -1.4709   -0.7575 H   0  0  0  0  0  0  0  0  0  0  0  0
   -4.2094   -1.9440    0.9490 H   0  0  0  0  0  0  0  0  0  0  0  0
   -3.2845    0.2806    1.5416 H   0  0  0  0  0  0  0  0  0  0  0  0
   -2.7689    1.9707   -0.1246 H   0  0  0  0  0  0  0  0  0  0  0  0
   -4.4490    1.5037   -0.3409 H   0  0  0  0  0  0  0  0  0  0  0  0
   -3.2218    0.8850   -1.4582 H   0  0  0  0  0  0  0  0  0  0  0  0
   -1.7962   -1.6080    1.0001 H   0  0  0  0  0  0  0  0  0  0  0  0
   -1.7530   -1.1619   -0.6891 H   0  0  0  0  0  0  0  0  0  0  0  0
   -0.8754    0.9026    1.3668 H   0  0  0  0  0  0  0  0  0  0  0  0
   -0.7588    1.6155   -1.0038 H   0  0  0  0  0  0  0  0  0  0  0  0
    0.1088    0.1692   -1.4623 H   0  0  0  0  0  0  0  0  0  0  0  0
    3.7662    2.4088   -0.5388 H   0  0  0  0  0  0  0  0  0  0  0  0
    5.8548    1.0913   -0.4382 H   0  0  0  0  0  0  0  0  0  0  0  0
    5.7735   -1.3550   -0.0240 H   0  0  0  0  0  0  0  0  0  0  0  0
    3.5946   -2.4822    0.3348 H   0  0  0  0  0  0  0  0  0  0  0  0
  1  2  1  0
  2  3  1  0
  2  4  1  0
  4  5  1  0
  5  6  1  0
  6  7  1  0
  7  8  2  0
  7  9  1  0
  9 10  2  0
 10 11  1  0
 11 12  2  0
 12 13  1  0
 13 14  2  0
 14 15  1  0
 15 16  2  0
 15 17  1  0
 17  5  1  0
 14  9  1  0
  1 18  1  0
  1 19  1  0
  1 20  1  0
  2 21  1  0
  3 22  1  0
  3 23  1  0
  3 24  1  0
  4 25  1  0
  4 26  1  0
  5 27  1  0
  6 28  1  0
  6 29  1  0
 10 30  1  0
 11 31  1  0
 12 32  1  0
 13 33  1  0
M  END
$$$$
