
     RDKit          3D

 36 39  0  0  0  0  0  0  0  0999 V2000
    1.7157   -0.5246    2.0795 O   0  0  0  0  0  0  0  0  0  0  0  0
    2.6044    0.1572    1.5762 C   0  0  0  0  0  0  0  0  0  0  0  0
    3.9824    0.2164    2.2080 C   0  0  0  0  0  0  0  0  0  0  0  0
    5.0096   -0.3443    1.2999 C   0  0  0  0  0  0  0  0  0  0  0  0
    5.4741   -1.6681    1.1898 C   0  0  0  0  0  0  0  0  0  0  0  0
    6.4062   -1.7439    0.2365 N   0  0  0  0  0  0  0  0  0  0  0  0
    6.4582   -0.4718   -0.1904 N   0  0  0  0  0  0  0  0  0  0  0  0
    5.6446    0.4241    0.4004 N   0  0  0  0  0  0  0  0  0  0  0  0
    2.4894    0.9446    0.4533 N   0  0  0  0  0  0  0  0  0  0  0  0
    1.3723    1.1601   -0.3520 C   0  0  0  0  0  0  0  0  0  0  0  0
    0.1046    0.6676   -0.0829 C   0  0  0  0  0  0  0  0  0  0  0  0
   -0.9502    0.9466   -0.9673 C   0  0  0  0  0  0  0  0  0  0  0  0
   -2.2947    0.4179   -0.6631 C   0  0  0  0  0  0  0  0  0  0  0  0
   -2.6483   -0.0369    0.5221 N   0  0  0  0  0  0  0  0  0  0  0  0
   -3.9580   -0.4822    0.5066 C   0  0  0  0  0  0  0  0  0  0  0  0
   -4.6591   -1.0280    1.6008 C   0  0  0  0  0  0  0  0  0  0  0  0
   -5.9865   -1.4393    1.4412 C   0  0  0  0  0  0  0  0  0  0  0  0
   -6.6193   -1.3130    0.2085 C   0  0  0  0  0  0  0  0  0  0  0  0
   -5.9445   -0.7752   -0.8921 C   0  0  0  0  0  0  0  0  0  0  0  0
   -4.6116   -0.3659   -0.7191 C   0  0  0  0  0  0  0  0  0  0  0  0
   -3.5282    0.3209   -1.8629 S   0  0  0  0  0  0  0  0  0  0  0  0
   -0.6727    1.7302   -2.0899 C   0  0  0  0  0  0  0  0  0  0  0  0
    0.6198    2.1844   -2.2767 C   0  0  0  0  0  0  0  0  0  0  0  0
    1.6386    1.9164   -1.4363 N   0  0  0  0  0  0  0  0  0  0  0  0
    4.2069    1.2578    2.4666 H   0  0  0  0  0  0  0  0  0  0  0  0
    3.9603   -0.3475    3.1478 H   0  0  0  0  0  0  0  0  0  0  0  0
    5.1855   -2.5527    1.7415 H   0  0  0  0  0  0  0  0  0  0  0  0
    7.0915   -0.1954   -0.9376 H   0  0  0  0  0  0  0  0  0  0  0  0
    3.3306    1.3731    0.0777 H   0  0  0  0  0  0  0  0  0  0  0  0
   -0.0922    0.0698    0.8009 H   0  0  0  0  0  0  0  0  0  0  0  0
   -4.1597   -1.1250    2.5599 H   0  0  0  0  0  0  0  0  0  0  0  0
   -6.5234   -1.8605    2.2879 H   0  0  0  0  0  0  0  0  0  0  0  0
   -7.6520   -1.6374    0.0976 H   0  0  0  0  0  0  0  0  0  0  0  0
   -6.4390   -0.6785   -1.8537 H   0  0  0  0  0  0  0  0  0  0  0  0
   -1.4333    2.0044   -2.8121 H   0  0  0  0  0  0  0  0  0  0  0  0
    0.8778    2.7987   -3.1349 H   0  0  0  0  0  0  0  0  0  0  0  0
  1  2  2  0
  2  3  1  0
  3  4  1  0
  4  5  1  0
  5  6  2  0
  6  7  1  0
  7  8  1  0
  2  9  1  0
  9 10  1  0
 10 11  2  0
 11 12  1  0
 12 13  1  0
 13 14  2  0
 14 15  1  0
 15 16  2  0
 16 17  1  0
 17 18  2  0
 18 19  1  0
 19 20  2  0
 20 21  1  0
 12 22  2  0
 22 23  1  0
 23 24  2  0
  8  4  2  0
 24 10  1  0
 21 13  1  0
 20 15  1  0
  3 25  1  0
  3 26  1  0
  5 27  1  0
  7 28  1  0
  9 29  1  0
 11 30  1  0
 16 31  1  0
 17 32  1  0
 18 33  1  0
 19 34  1  0
 22 35  1  0
 23 36  1  0
M  END
$$$$
