
     RDKit          3D

 33 35  0  0  0  0  0  0  0  0999 V2000
    0.1244    0.9941   -2.3030 O   0  0  0  0  0  0  0  0  0  0  0  0
   -0.1052    0.7806   -1.1164 C   0  0  0  0  0  0  0  0  0  0  0  0
    0.8846    1.2583   -0.1364 C   0  0  0  0  0  0  0  0  0  0  0  0
    0.7590    2.5856    0.2987 C   0  0  0  0  0  0  0  0  0  0  0  0
    1.6448    3.0905    1.2483 C   0  0  0  0  0  0  0  0  0  0  0  0
    2.6507    2.2735    1.7609 C   0  0  0  0  0  0  0  0  0  0  0  0
    2.7798    0.9535    1.3167 C   0  0  0  0  0  0  0  0  0  0  0  0
    1.9066    0.4278    0.3494 C   0  0  0  0  0  0  0  0  0  0  0  0
    2.0832   -0.9532   -0.0872 C   0  0  0  0  0  0  0  0  0  0  0  0
    2.0147   -1.5142   -1.3861 C   0  0  0  0  0  0  0  0  0  0  0  0
    2.2460   -2.8299   -1.3393 N   0  0  0  0  0  0  0  0  0  0  0  0
    2.4562   -3.0095   -0.0288 N   0  0  0  0  0  0  0  0  0  0  0  0
    2.3740   -1.9409    0.7795 N   0  0  0  0  0  0  0  0  0  0  0  0
   -1.2318    0.1271   -0.6447 N   0  0  0  0  0  0  0  0  0  0  0  0
   -1.5411   -0.1273    0.7682 C   0  0  0  0  0  0  0  0  0  0  0  0
   -2.5000   -1.3126    0.9146 C   0  0  0  0  0  0  0  0  0  0  0  0
   -3.7399   -1.1327    0.2169 O   0  0  0  0  0  0  0  0  0  0  0  0
   -3.6324   -0.3396   -0.9749 C   0  0  0  0  0  0  0  0  0  0  0  0
   -2.2351   -0.3427   -1.6007 C   0  0  0  0  0  0  0  0  0  0  0  0
   -0.0269    3.2209   -0.1034 H   0  0  0  0  0  0  0  0  0  0  0  0
    1.5517    4.1190    1.5890 H   0  0  0  0  0  0  0  0  0  0  0  0
    3.3417    2.6629    2.5053 H   0  0  0  0  0  0  0  0  0  0  0  0
    3.5746    0.3326    1.7284 H   0  0  0  0  0  0  0  0  0  0  0  0
    1.8173   -1.0347   -2.3362 H   0  0  0  0  0  0  0  0  0  0  0  0
    2.6727   -3.9314    0.3428 H   0  0  0  0  0  0  0  0  0  0  0  0
   -0.6279   -0.3115    1.3383 H   0  0  0  0  0  0  0  0  0  0  0  0
   -2.0094    0.7862    1.1524 H   0  0  0  0  0  0  0  0  0  0  0  0
   -2.0340   -2.2292    0.5342 H   0  0  0  0  0  0  0  0  0  0  0  0
   -2.7371   -1.4796    1.9700 H   0  0  0  0  0  0  0  0  0  0  0  0
   -4.3697   -0.7176   -1.6900 H   0  0  0  0  0  0  0  0  0  0  0  0
   -3.9251    0.6837   -0.7123 H   0  0  0  0  0  0  0  0  0  0  0  0
   -1.9471   -1.3635   -1.8781 H   0  0  0  0  0  0  0  0  0  0  0  0
   -2.2192    0.2737   -2.5052 H   0  0  0  0  0  0  0  0  0  0  0  0
  1  2  2  0
  2  3  1  0
  3  4  2  0
  4  5  1  0
  5  6  2  0
  6  7  1  0
  7  8  2  0
  8  9  1  0
  9 10  1  0
 10 11  2  0
 11 12  1  0
 12 13  1  0
  2 14  1  0
 14 15  1  0
 15 16  1  0
 16 17  1  0
 17 18  1  0
 18 19  1  0
  8  3  1  0
 13  9  2  0
 19 14  1  0
  4 20  1  0
  5 21  1  0
  6 22  1  0
  7 23  1  0
 10 24  1  0
 12 25  1  0
 15 26  1  0
 15 27  1  0
 16 28  1  0
 16 29  1  0
 18 30  1  0
 18 31  1  0
 19 32  1  0
 19 33  1  0
M  END
$$$$
