
     RDKit          3D

 37 40  0  0  0  0  0  0  0  0999 V2000
   -6.5670   -1.3675    0.3340 N   0  0  0  0  0  0  0  0  0  0  0  0
   -5.6993   -0.3080    0.0490 C   0  0  0  0  0  0  0  0  0  0  0  0
   -4.3223   -0.5014    0.1007 C   0  0  0  0  0  0  0  0  0  0  0  0
   -3.4563    0.5650   -0.1784 C   0  0  0  0  0  0  0  0  0  0  0  0
   -1.9963    0.3934   -0.1292 C   0  0  0  0  0  0  0  0  0  0  0  0
   -1.1950    1.2320    0.6595 C   0  0  0  0  0  0  0  0  0  0  0  0
    0.1948    1.0682    0.7076 C   0  0  0  0  0  0  0  0  0  0  0  0
    0.8303    0.0616   -0.0335 C   0  0  0  0  0  0  0  0  0  0  0  0
    2.2914   -0.1105    0.0157 C   0  0  0  0  0  0  0  0  0  0  0  0
    2.9456   -0.3263    1.2436 C   0  0  0  0  0  0  0  0  0  0  0  0
    4.3309   -0.4934    1.3120 C   0  0  0  0  0  0  0  0  0  0  0  0
    4.9783   -0.7076    2.4943 O   0  0  0  0  0  0  0  0  0  0  0  0
    5.0500   -0.4378    0.1236 C   0  0  0  0  0  0  0  0  0  0  0  0
    6.3874   -0.5603   -0.1352 N   0  0  0  0  0  0  0  0  0  0  0  0
    6.7068   -0.4449   -1.4392 N   0  0  0  0  0  0  0  0  0  0  0  0
    5.5243   -0.2410   -2.0277 C   0  0  0  0  0  0  0  0  0  0  0  0
    4.4507   -0.2274   -1.1096 C   0  0  0  0  0  0  0  0  0  0  0  0
    3.0550   -0.0619   -1.1710 C   0  0  0  0  0  0  0  0  0  0  0  0
    0.0302   -0.7755   -0.8242 C   0  0  0  0  0  0  0  0  0  0  0  0
   -1.3598   -0.6132   -0.8702 C   0  0  0  0  0  0  0  0  0  0  0  0
   -4.0298    1.7960   -0.5037 C   0  0  0  0  0  0  0  0  0  0  0  0
   -5.4093    1.8984   -0.5349 C   0  0  0  0  0  0  0  0  0  0  0  0
   -6.2453    0.8753   -0.2647 N   0  0  0  0  0  0  0  0  0  0  0  0
   -6.3978   -1.7015    1.2772 H   0  0  0  0  0  0  0  0  0  0  0  0
   -6.3964   -2.1318   -0.3112 H   0  0  0  0  0  0  0  0  0  0  0  0
   -3.9220   -1.4737    0.3694 H   0  0  0  0  0  0  0  0  0  0  0  0
   -1.6490    2.0217    1.2554 H   0  0  0  0  0  0  0  0  0  0  0  0
    0.7813    1.7464    1.3246 H   0  0  0  0  0  0  0  0  0  0  0  0
    2.3532   -0.3742    2.1546 H   0  0  0  0  0  0  0  0  0  0  0  0
    4.3179   -0.7266    3.2077 H   0  0  0  0  0  0  0  0  0  0  0  0
    7.1251   -0.7227    0.5408 H   0  0  0  0  0  0  0  0  0  0  0  0
    5.4901   -0.1108   -3.1015 H   0  0  0  0  0  0  0  0  0  0  0  0
    2.5750    0.1139   -2.1303 H   0  0  0  0  0  0  0  0  0  0  0  0
    0.4848   -1.5721   -1.4104 H   0  0  0  0  0  0  0  0  0  0  0  0
   -1.9423   -1.2781   -1.5052 H   0  0  0  0  0  0  0  0  0  0  0  0
   -3.4192    2.6607   -0.7422 H   0  0  0  0  0  0  0  0  0  0  0  0
   -5.8963    2.8357   -0.7878 H   0  0  0  0  0  0  0  0  0  0  0  0
  1  2  1  0
  2  3  2  0
  3  4  1  0
  4  5  1  0
  5  6  2  0
  6  7  1  0
  7  8  2  0
  8  9  1  0
  9 10  2  0
 10 11  1  0
 11 12  1  0
 11 13  2  0
 13 14  1  0
 14 15  1  0
 15 16  2  0
 16 17  1  0
 17 18  2  0
  8 19  1  0
 19 20  2  0
  4 21  2  0
 21 22  1  0
 22 23  2  0
 23  2  1  0
 20  5  1  0
 18  9  1  0
 17 13  1  0
  1 24  1  0
  1 25  1  0
  3 26  1  0
  6 27  1  0
  7 28  1  0
 10 29  1  0
 12 30  1  0
 14 31  1  0
 16 32  1  0
 18 33  1  0
 19 34  1  0
 20 35  1  0
 21 36  1  0
 22 37  1  0
M  END
$$$$
