
     RDKit          3D

 42 44  0  0  0  0  0  0  0  0999 V2000
    1.1878    0.2883    2.2350 O   0  0  0  0  0  0  0  0  0  0  0  0
    1.4569   -0.2311    1.1543 C   0  0  0  0  0  0  0  0  0  0  0  0
    0.3862   -0.7633    0.2154 C   0  0  0  0  0  0  0  0  0  0  0  0
   -0.9588   -0.0210    0.3996 C   0  0  0  0  0  0  0  0  0  0  0  0
   -0.9277    1.4708    0.0491 C   0  0  0  0  0  0  0  0  0  0  0  0
   -1.8260    2.3342    0.7052 C   0  0  0  0  0  0  0  0  0  0  0  0
   -1.8462    3.6968    0.4147 C   0  0  0  0  0  0  0  0  0  0  0  0
   -2.7095    4.4942    1.0574 F   0  0  0  0  0  0  0  0  0  0  0  0
   -0.9905    4.2397   -0.5296 C   0  0  0  0  0  0  0  0  0  0  0  0
   -0.1121    3.3949   -1.1893 C   0  0  0  0  0  0  0  0  0  0  0  0
    0.7168    3.8984   -2.1135 F   0  0  0  0  0  0  0  0  0  0  0  0
   -0.0736    2.0267   -0.9162 C   0  0  0  0  0  0  0  0  0  0  0  0
   -2.1006   -0.6564   -0.2905 N   0  0  0  0  0  0  0  0  0  0  0  0
   -2.6455   -1.8198    0.4311 C   0  0  0  0  0  0  0  0  0  0  0  0
   -3.6009   -2.6293   -0.4574 C   0  0  0  0  0  0  0  0  0  0  0  0
   -2.9432   -3.1995   -1.5967 O   0  0  0  0  0  0  0  0  0  0  0  0
   -1.8414   -2.4152   -2.0694 C   0  0  0  0  0  0  0  0  0  0  0  0
   -1.9542   -0.9193   -1.7309 C   0  0  0  0  0  0  0  0  0  0  0  0
    2.8830   -0.3684    0.7657 C   0  0  0  0  0  0  0  0  0  0  0  0
    3.8454    0.4382    1.3778 C   0  0  0  0  0  0  0  0  0  0  0  0
    5.1832    0.3127    1.0104 C   0  0  0  0  0  0  0  0  0  0  0  0
    5.5135   -0.6220    0.0428 C   0  0  0  0  0  0  0  0  0  0  0  0
    4.6101   -1.4248   -0.5624 N   0  0  0  0  0  0  0  0  0  0  0  0
    3.3167   -1.2850   -0.1827 C   0  0  0  0  0  0  0  0  0  0  0  0
    0.2729   -1.8270    0.4535 H   0  0  0  0  0  0  0  0  0  0  0  0
    0.7287   -0.6897   -0.8208 H   0  0  0  0  0  0  0  0  0  0  0  0
   -1.1821   -0.0477    1.4769 H   0  0  0  0  0  0  0  0  0  0  0  0
   -2.5210    1.9486    1.4473 H   0  0  0  0  0  0  0  0  0  0  0  0
   -1.0121    5.2995   -0.7509 H   0  0  0  0  0  0  0  0  0  0  0  0
    0.6273    1.4235   -1.4825 H   0  0  0  0  0  0  0  0  0  0  0  0
   -3.1824   -1.4741    1.3213 H   0  0  0  0  0  0  0  0  0  0  0  0
   -1.8392   -2.4856    0.7597 H   0  0  0  0  0  0  0  0  0  0  0  0
   -4.0385   -3.4541    0.1143 H   0  0  0  0  0  0  0  0  0  0  0  0
   -4.4293   -2.0057   -0.8139 H   0  0  0  0  0  0  0  0  0  0  0  0
   -0.9228   -2.8372   -1.6461 H   0  0  0  0  0  0  0  0  0  0  0  0
   -1.7868   -2.5498   -3.1546 H   0  0  0  0  0  0  0  0  0  0  0  0
   -1.1158   -0.3762   -2.1775 H   0  0  0  0  0  0  0  0  0  0  0  0
   -2.8582   -0.5294   -2.2157 H   0  0  0  0  0  0  0  0  0  0  0  0
    3.5578    1.1635    2.1363 H   0  0  0  0  0  0  0  0  0  0  0  0
    5.9484    0.9296    1.4693 H   0  0  0  0  0  0  0  0  0  0  0  0
    6.5431   -0.7563   -0.2783 H   0  0  0  0  0  0  0  0  0  0  0  0
    2.6407   -1.9716   -0.6823 H   0  0  0  0  0  0  0  0  0  0  0  0
  1  2  2  0
  2  3  1  0
  3  4  1  0
  4  5  1  0
  5  6  2  0
  6  7  1  0
  7  8  1  0
  7  9  2  0
  9 10  1  0
 10 11  1  0
 10 12  2  0
  4 13  1  0
 13 14  1  0
 14 15  1  0
 15 16  1  0
 16 17  1  0
 17 18  1  0
  2 19  1  0
 19 20  2  0
 20 21  1  0
 21 22  2  0
 22 23  1  0
 23 24  2  0
 12  5  1  0
 18 13  1  0
 24 19  1  0
  3 25  1  0
  3 26  1  0
  4 27  1  0
  6 28  1  0
  9 29  1  0
 12 30  1  0
 14 31  1  0
 14 32  1  0
 15 33  1  0
 15 34  1  0
 17 35  1  0
 17 36  1  0
 18 37  1  0
 18 38  1  0
 20 39  1  0
 21 40  1  0
 22 41  1  0
 24 42  1  0
M  END
$$$$
