
     RDKit          3D

 47 51  0  0  0  0  0  0  0  0999 V2000
    3.1223    1.9706    1.9820 C   0  0  0  0  0  0  0  0  0  0  0  0
    1.7676    1.7781    1.7861 C   0  0  0  0  0  0  0  0  0  0  0  0
    1.3536    0.7161    0.9830 C   0  0  0  0  0  0  0  0  0  0  0  0
   -0.0733    0.4530    0.7403 C   0  0  0  0  0  0  0  0  0  0  0  0
   -0.9751    0.3086    1.8048 C   0  0  0  0  0  0  0  0  0  0  0  0
   -2.3335    0.0592    1.5732 C   0  0  0  0  0  0  0  0  0  0  0  0
   -2.8365   -0.0546    0.2693 C   0  0  0  0  0  0  0  0  0  0  0  0
   -4.2648   -0.3167    0.0261 C   0  0  0  0  0  0  0  0  0  0  0  0
   -4.6709   -1.4171   -0.7499 C   0  0  0  0  0  0  0  0  0  0  0  0
   -6.0208   -1.6987   -1.0021 C   0  0  0  0  0  0  0  0  0  0  0  0
   -6.9617   -0.8307   -0.4457 C   0  0  0  0  0  0  0  0  0  0  0  0
   -8.3310   -0.8150   -0.4941 N   0  0  0  0  0  0  0  0  0  0  0  0
   -8.8939    0.2042    0.1801 N   0  0  0  0  0  0  0  0  0  0  0  0
   -7.8433    0.8622    0.6777 C   0  0  0  0  0  0  0  0  0  0  0  0
   -6.6107    0.2687    0.3266 C   0  0  0  0  0  0  0  0  0  0  0  0
   -5.2504    0.5328    0.5687 C   0  0  0  0  0  0  0  0  0  0  0  0
   -1.9353    0.0893   -0.7953 C   0  0  0  0  0  0  0  0  0  0  0  0
   -0.5770    0.3387   -0.5638 C   0  0  0  0  0  0  0  0  0  0  0  0
    2.3482   -0.0949    0.4179 C   0  0  0  0  0  0  0  0  0  0  0  0
    3.7012    0.1626    0.6551 C   0  0  0  0  0  0  0  0  0  0  0  0
    4.6728   -0.6730    0.0669 N   0  0  0  0  0  0  0  0  0  0  0  0
    6.0357   -0.5110    0.6243 C   0  0  0  0  0  0  0  0  0  0  0  0
    6.8759    0.4236   -0.2570 C   0  0  0  0  0  0  0  0  0  0  0  0
    7.0509   -0.0694   -1.5996 O   0  0  0  0  0  0  0  0  0  0  0  0
    5.9969   -0.9513   -2.0182 C   0  0  0  0  0  0  0  0  0  0  0  0
    4.6310   -0.5891   -1.4139 C   0  0  0  0  0  0  0  0  0  0  0  0
    4.0819    1.1918    1.4393 N   0  0  0  0  0  0  0  0  0  0  0  0
    3.4861    2.7860    2.6005 H   0  0  0  0  0  0  0  0  0  0  0  0
    1.0533    2.4517    2.2477 H   0  0  0  0  0  0  0  0  0  0  0  0
   -0.6238    0.3728    2.8329 H   0  0  0  0  0  0  0  0  0  0  0  0
   -2.9972   -0.0614    2.4274 H   0  0  0  0  0  0  0  0  0  0  0  0
   -3.9191   -2.0881   -1.1646 H   0  0  0  0  0  0  0  0  0  0  0  0
   -6.3114   -2.5557   -1.6004 H   0  0  0  0  0  0  0  0  0  0  0  0
   -8.9401   -1.4701   -0.9703 H   0  0  0  0  0  0  0  0  0  0  0  0
   -8.0146    1.7472    1.2764 H   0  0  0  0  0  0  0  0  0  0  0  0
   -4.9673    1.3973    1.1633 H   0  0  0  0  0  0  0  0  0  0  0  0
   -2.2886    0.0222   -1.8226 H   0  0  0  0  0  0  0  0  0  0  0  0
    0.0853    0.4584   -1.4191 H   0  0  0  0  0  0  0  0  0  0  0  0
    2.0687   -0.9535   -0.1851 H   0  0  0  0  0  0  0  0  0  0  0  0
    6.0378   -0.1797    1.6692 H   0  0  0  0  0  0  0  0  0  0  0  0
    6.5007   -1.5051    0.6279 H   0  0  0  0  0  0  0  0  0  0  0  0
    7.8745    0.5508    0.1727 H   0  0  0  0  0  0  0  0  0  0  0  0
    6.4179    1.4167   -0.3257 H   0  0  0  0  0  0  0  0  0  0  0  0
    5.9484   -0.9064   -3.1109 H   0  0  0  0  0  0  0  0  0  0  0  0
    6.2831   -1.9742   -1.7466 H   0  0  0  0  0  0  0  0  0  0  0  0
    3.8706   -1.2769   -1.8003 H   0  0  0  0  0  0  0  0  0  0  0  0
    4.3764    0.4302   -1.7356 H   0  0  0  0  0  0  0  0  0  0  0  0
  1  2  2  0
  2  3  1  0
  3  4  1  0
  4  5  2  0
  5  6  1  0
  6  7  2  0
  7  8  1  0
  8  9  2  0
  9 10  1  0
 10 11  2  0
 11 12  1  0
 12 13  1  0
 13 14  2  0
 14 15  1  0
 15 16  2  0
  7 17  1  0
 17 18  2  0
  3 19  2  0
 19 20  1  0
 20 21  1  0
 21 22  1  0
 22 23  1  0
 23 24  1  0
 24 25  1  0
 25 26  1  0
 20 27  2  0
 27  1  1  0
 18  4  1  0
 26 21  1  0
 16  8  1  0
 15 11  1  0
  1 28  1  0
  2 29  1  0
  5 30  1  0
  6 31  1  0
  9 32  1  0
 10 33  1  0
 12 34  1  0
 14 35  1  0
 16 36  1  0
 17 37  1  0
 18 38  1  0
 19 39  1  0
 22 40  1  0
 22 41  1  0
 23 42  1  0
 23 43  1  0
 25 44  1  0
 25 45  1  0
 26 46  1  0
 26 47  1  0
M  END
$$$$
