
     RDKit          3D

 45 47  0  0  0  0  0  0  0  0999 V2000
    4.4072    2.6433   -0.1542 C   0  0  0  0  0  0  0  0  0  0  0  0
    4.1158    1.1901   -0.4019 C   0  0  0  0  0  0  0  0  0  0  0  0
    4.4043    0.6625   -1.6753 C   0  0  0  0  0  0  0  0  0  0  0  0
    4.1737   -0.6851   -1.9633 C   0  0  0  0  0  0  0  0  0  0  0  0
    4.5714   -1.3596   -3.6852 Br  0  0  0  0  0  0  0  0  0  0  0  0
    3.6608   -1.5371   -0.9916 C   0  0  0  0  0  0  0  0  0  0  0  0
    3.3789   -1.0382    0.2802 C   0  0  0  0  0  0  0  0  0  0  0  0
    3.6001    0.3178    0.5787 C   0  0  0  0  0  0  0  0  0  0  0  0
    3.2374    0.8591    2.2490 S   0  0  0  0  0  0  0  0  0  0  0  0
    4.2457    1.8206    2.6415 O   0  0  0  0  0  0  0  0  0  0  0  0
    2.9908   -0.3149    3.0608 O   0  0  0  0  0  0  0  0  0  0  0  0
    1.7964    1.7183    2.0775 N   0  0  0  0  0  0  0  0  0  0  0  0
    0.6896    1.1282    1.4093 C   0  0  0  0  0  0  0  0  0  0  0  0
    0.1845    1.7484    0.2717 C   0  0  0  0  0  0  0  0  0  0  0  0
   -0.8983    1.1808   -0.4092 C   0  0  0  0  0  0  0  0  0  0  0  0
   -1.5055   -0.0087    0.0263 C   0  0  0  0  0  0  0  0  0  0  0  0
   -2.5959   -0.5255   -0.6853 N   0  0  0  0  0  0  0  0  0  0  0  0
   -2.8992   -1.9625   -0.6137 C   0  0  0  0  0  0  0  0  0  0  0  0
   -4.1152   -2.2130    0.2714 C   0  0  0  0  0  0  0  0  0  0  0  0
   -5.3587   -1.5032   -0.2684 C   0  0  0  0  0  0  0  0  0  0  0  0
   -5.0205   -0.3245   -1.1827 C   0  0  0  0  0  0  0  0  0  0  0  0
   -3.7518    0.3952   -0.7313 C   0  0  0  0  0  0  0  0  0  0  0  0
   -0.9748   -0.6126    1.1751 C   0  0  0  0  0  0  0  0  0  0  0  0
    0.1084   -0.0509    1.8635 C   0  0  0  0  0  0  0  0  0  0  0  0
    5.3065    2.7555    0.4600 H   0  0  0  0  0  0  0  0  0  0  0  0
    3.5599    3.1396    0.3276 H   0  0  0  0  0  0  0  0  0  0  0  0
    4.5804    3.1789   -1.0950 H   0  0  0  0  0  0  0  0  0  0  0  0
    4.8166    1.3083   -2.4493 H   0  0  0  0  0  0  0  0  0  0  0  0
    3.4827   -2.5874   -1.2077 H   0  0  0  0  0  0  0  0  0  0  0  0
    2.9850   -1.7172    1.0345 H   0  0  0  0  0  0  0  0  0  0  0  0
    1.9495    2.7179    1.9651 H   0  0  0  0  0  0  0  0  0  0  0  0
    0.6277    2.6612   -0.1132 H   0  0  0  0  0  0  0  0  0  0  0  0
   -1.2532    1.6634   -1.3162 H   0  0  0  0  0  0  0  0  0  0  0  0
   -3.1101   -2.3180   -1.6312 H   0  0  0  0  0  0  0  0  0  0  0  0
   -2.0426   -2.5582   -0.2760 H   0  0  0  0  0  0  0  0  0  0  0  0
   -3.9118   -1.8537    1.2878 H   0  0  0  0  0  0  0  0  0  0  0  0
   -4.3117   -3.2879    0.3521 H   0  0  0  0  0  0  0  0  0  0  0  0
   -5.9832   -2.2138   -0.8237 H   0  0  0  0  0  0  0  0  0  0  0  0
   -5.9651   -1.1585    0.5790 H   0  0  0  0  0  0  0  0  0  0  0  0
   -4.8877   -0.6881   -2.2110 H   0  0  0  0  0  0  0  0  0  0  0  0
   -5.8642    0.3761   -1.2055 H   0  0  0  0  0  0  0  0  0  0  0  0
   -3.5503    1.2160   -1.4307 H   0  0  0  0  0  0  0  0  0  0  0  0
   -3.9295    0.8344    0.2610 H   0  0  0  0  0  0  0  0  0  0  0  0
   -1.4139   -1.5162    1.5842 H   0  0  0  0  0  0  0  0  0  0  0  0
    0.4700   -0.5396    2.7650 H   0  0  0  0  0  0  0  0  0  0  0  0
  1  2  1  0
  2  3  2  0
  3  4  1  0
  4  5  1  0
  4  6  2  0
  6  7  1  0
  7  8  2  0
  8  9  1  0
  9 10  2  0
  9 11  2  0
  9 12  1  0
 12 13  1  0
 13 14  2  0
 14 15  1  0
 15 16  2  0
 16 17  1  0
 17 18  1  0
 18 19  1  0
 19 20  1  0
 20 21  1  0
 21 22  1  0
 16 23  1  0
 23 24  2  0
  8  2  1  0
 24 13  1  0
 22 17  1  0
  1 25  1  0
  1 26  1  0
  1 27  1  0
  3 28  1  0
  6 29  1  0
  7 30  1  0
 12 31  1  0
 14 32  1  0
 15 33  1  0
 18 34  1  0
 18 35  1  0
 19 36  1  0
 19 37  1  0
 20 38  1  0
 20 39  1  0
 21 40  1  0
 21 41  1  0
 22 42  1  0
 22 43  1  0
 23 44  1  0
 24 45  1  0
M  END
$$$$
