
     RDKit          3D

 48 50  0  0  0  0  0  0  0  0999 V2000
    5.6890   -1.0187    1.4158 C   0  0  0  0  0  0  0  0  0  0  0  0
    6.1676    0.1952    0.7642 N   0  0  0  0  0  0  0  0  0  0  0  0
    5.0629    1.1235    0.4630 C   0  0  0  0  0  0  0  0  0  0  0  0
    4.2089    0.6210   -0.7154 C   0  0  0  0  0  0  0  0  0  0  0  0
    4.7157   -0.0105   -1.6402 O   0  0  0  0  0  0  0  0  0  0  0  0
    2.8683    0.9677   -0.5868 N   0  0  0  0  0  0  0  0  0  0  0  0
    1.8132    0.7163   -1.4539 C   0  0  0  0  0  0  0  0  0  0  0  0
    1.9753    0.1464   -2.6624 C   0  0  0  0  0  0  0  0  0  0  0  0
    0.8891   -0.0107   -3.5963 C   0  0  0  0  0  0  0  0  0  0  0  0
   -0.3827    0.1133   -3.2034 C   0  0  0  0  0  0  0  0  0  0  0  0
   -0.7483    0.4277   -1.7699 C   0  0  0  0  0  0  0  0  0  0  0  0
   -1.1712   -0.8778   -1.0669 C   0  0  0  0  0  0  0  0  0  0  0  0
   -2.2258   -0.7095    0.0079 C   0  0  0  0  0  0  0  0  0  0  0  0
   -3.2250   -1.7040    0.0874 C   0  0  0  0  0  0  0  0  0  0  0  0
   -4.2508   -1.6559    1.0340 C   0  0  0  0  0  0  0  0  0  0  0  0
   -5.1413   -2.6907    0.9688 O   0  0  0  0  0  0  0  0  0  0  0  0
   -6.1959   -2.6933    1.9227 C   0  0  0  0  0  0  0  0  0  0  0  0
   -4.2867   -0.5980    1.9309 C   0  0  0  0  0  0  0  0  0  0  0  0
   -3.2963    0.3865    1.8817 C   0  0  0  0  0  0  0  0  0  0  0  0
   -2.2456    0.3419    0.9394 C   0  0  0  0  0  0  0  0  0  0  0  0
   -1.2303    1.4646    0.9968 C   0  0  0  0  0  0  0  0  0  0  0  0
   -1.7217    2.6189    0.3202 O   0  0  0  0  0  0  0  0  0  0  0  0
    0.1891    1.1489    0.5185 C   0  0  0  0  0  0  0  0  0  0  0  0
    0.4001    1.1764   -1.0153 C   0  0  0  0  0  0  0  0  0  0  0  0
    5.2074   -0.7884    2.3716 H   0  0  0  0  0  0  0  0  0  0  0  0
    6.5395   -1.6743    1.6270 H   0  0  0  0  0  0  0  0  0  0  0  0
    4.9872   -1.5759    0.7873 H   0  0  0  0  0  0  0  0  0  0  0  0
    6.5885   -0.0693   -0.1332 H   0  0  0  0  0  0  0  0  0  0  0  0
    4.4533    1.2954    1.3566 H   0  0  0  0  0  0  0  0  0  0  0  0
    5.4864    2.0880    0.1619 H   0  0  0  0  0  0  0  0  0  0  0  0
    2.6408    1.4901    0.2482 H   0  0  0  0  0  0  0  0  0  0  0  0
    2.9425   -0.1746   -3.0345 H   0  0  0  0  0  0  0  0  0  0  0  0
    1.1375   -0.2527   -4.6257 H   0  0  0  0  0  0  0  0  0  0  0  0
   -1.1886   -0.0332   -3.9175 H   0  0  0  0  0  0  0  0  0  0  0  0
   -1.6117    1.1045   -1.8279 H   0  0  0  0  0  0  0  0  0  0  0  0
   -1.5758   -1.5660   -1.8227 H   0  0  0  0  0  0  0  0  0  0  0  0
   -0.3058   -1.3945   -0.6325 H   0  0  0  0  0  0  0  0  0  0  0  0
   -3.2125   -2.5414   -0.6099 H   0  0  0  0  0  0  0  0  0  0  0  0
   -6.8395   -1.8157    1.8015 H   0  0  0  0  0  0  0  0  0  0  0  0
   -6.8079   -3.5823    1.7422 H   0  0  0  0  0  0  0  0  0  0  0  0
   -5.8051   -2.7596    2.9435 H   0  0  0  0  0  0  0  0  0  0  0  0
   -5.0629   -0.5077    2.6830 H   0  0  0  0  0  0  0  0  0  0  0  0
   -3.3452    1.2029    2.6022 H   0  0  0  0  0  0  0  0  0  0  0  0
   -1.1304    1.7486    2.0531 H   0  0  0  0  0  0  0  0  0  0  0  0
   -2.6605    2.4675    0.1123 H   0  0  0  0  0  0  0  0  0  0  0  0
    0.8292    1.9319    0.9474 H   0  0  0  0  0  0  0  0  0  0  0  0
    0.5325    0.1997    0.9495 H   0  0  0  0  0  0  0  0  0  0  0  0
    0.3432    2.2322   -1.3241 H   0  0  0  0  0  0  0  0  0  0  0  0
  1  2  1  0
  2  3  1  0
  3  4  1  0
  4  5  2  0
  4  6  1  0
  6  7  1  0
  7  8  2  0
  8  9  1  0
  9 10  2  0
 10 11  1  0
 11 12  1  0
 12 13  1  0
 13 14  2  0
 14 15  1  0
 15 16  1  0
 16 17  1  0
 15 18  2  0
 18 19  1  0
 19 20  2  0
 20 21  1  0
 21 22  1  0
 21 23  1  0
 23 24  1  0
 24  7  1  0
 24 11  1  0
 20 13  1  0
  1 25  1  0
  1 26  1  0
  1 27  1  0
  2 28  1  0
  3 29  1  0
  3 30  1  0
  6 31  1  0
  8 32  1  0
  9 33  1  0
 10 34  1  0
 11 35  1  0
 12 36  1  0
 12 37  1  0
 14 38  1  0
 17 39  1  0
 17 40  1  0
 17 41  1  0
 18 42  1  0
 19 43  1  0
 21 44  1  0
 22 45  1  0
 23 46  1  0
 23 47  1  0
 24 48  1  0
M  END
$$$$
