
     RDKit          3D

 43 45  0  0  0  0  0  0  0  0999 V2000
    5.1761   -2.2086    1.2273 C   0  0  0  0  0  0  0  0  0  0  0  0
    4.4752   -1.7998    0.0604 O   0  0  0  0  0  0  0  0  0  0  0  0
    4.3683   -0.3734   -0.0197 C   0  0  0  0  0  0  0  0  0  0  0  0
    3.5436    0.0719   -1.2574 C   0  0  0  0  0  0  0  0  0  0  0  0
    4.0415   -0.6383   -2.5297 C   0  0  0  0  0  0  0  0  0  0  0  0
    3.7505    1.5921   -1.4322 C   0  0  0  0  0  0  0  0  0  0  0  0
    2.0805   -0.2518   -1.0511 C   0  0  0  0  0  0  0  0  0  0  0  0
    1.4115   -1.3945   -0.6744 C   0  0  0  0  0  0  0  0  0  0  0  0
    0.0357   -1.0686   -0.6737 C   0  0  0  0  0  0  0  0  0  0  0  0
   -0.0932    0.2671   -1.0315 C   0  0  0  0  0  0  0  0  0  0  0  0
   -1.2341    1.0891   -1.2361 C   0  0  0  0  0  0  0  0  0  0  0  0
   -2.3467    1.1644   -0.4788 C   0  0  0  0  0  0  0  0  0  0  0  0
   -3.3922    2.0923   -1.0112 C   0  0  0  0  0  0  0  0  0  0  0  0
   -3.2442    2.7785   -2.0192 O   0  0  0  0  0  0  0  0  0  0  0  0
   -4.5731    2.1473   -0.3296 N   0  0  0  0  0  0  0  0  0  0  0  0
   -4.8728    1.4204    0.8209 C   0  0  0  0  0  0  0  0  0  0  0  0
   -6.1398    1.5556    1.3944 C   0  0  0  0  0  0  0  0  0  0  0  0
   -6.4620    0.8412    2.5502 C   0  0  0  0  0  0  0  0  0  0  0  0
   -5.5206   -0.0047    3.1351 C   0  0  0  0  0  0  0  0  0  0  0  0
   -4.2545   -0.1375    2.5639 C   0  0  0  0  0  0  0  0  0  0  0  0
   -3.9306    0.5759    1.4021 C   0  0  0  0  0  0  0  0  0  0  0  0
   -2.5866    0.4435    0.8048 C   0  0  0  0  0  0  0  0  0  0  0  0
   -1.7447   -0.2221    1.3947 O   0  0  0  0  0  0  0  0  0  0  0  0
    1.1758    0.7389   -1.2892 O   0  0  0  0  0  0  0  0  0  0  0  0
    5.2346   -3.3003    1.2286 H   0  0  0  0  0  0  0  0  0  0  0  0
    4.6425   -1.8867    2.1267 H   0  0  0  0  0  0  0  0  0  0  0  0
    6.1926   -1.8038    1.2258 H   0  0  0  0  0  0  0  0  0  0  0  0
    5.3853    0.0340   -0.0858 H   0  0  0  0  0  0  0  0  0  0  0  0
    3.9080    0.0084    0.9012 H   0  0  0  0  0  0  0  0  0  0  0  0
    3.8993   -1.7238   -2.4767 H   0  0  0  0  0  0  0  0  0  0  0  0
    3.4992   -0.2871   -3.4158 H   0  0  0  0  0  0  0  0  0  0  0  0
    5.1083   -0.4490   -2.6943 H   0  0  0  0  0  0  0  0  0  0  0  0
    4.8104    1.8335   -1.5738 H   0  0  0  0  0  0  0  0  0  0  0  0
    3.3975    2.1463   -0.5543 H   0  0  0  0  0  0  0  0  0  0  0  0
    3.2101    1.9756   -2.3059 H   0  0  0  0  0  0  0  0  0  0  0  0
    1.8633   -2.3470   -0.4340 H   0  0  0  0  0  0  0  0  0  0  0  0
   -0.7788   -1.7379   -0.4341 H   0  0  0  0  0  0  0  0  0  0  0  0
   -1.1450    1.7259   -2.1151 H   0  0  0  0  0  0  0  0  0  0  0  0
   -5.2643    2.7715   -0.7288 H   0  0  0  0  0  0  0  0  0  0  0  0
   -6.8864    2.2119    0.9543 H   0  0  0  0  0  0  0  0  0  0  0  0
   -7.4483    0.9457    2.9971 H   0  0  0  0  0  0  0  0  0  0  0  0
   -5.7701   -0.5591    4.0370 H   0  0  0  0  0  0  0  0  0  0  0  0
   -3.5217   -0.7955    3.0278 H   0  0  0  0  0  0  0  0  0  0  0  0
  1  2  1  0
  2  3  1  0
  3  4  1  0
  4  5  1  0
  4  6  1  0
  4  7  1  0
  7  8  2  0
  8  9  1  0
  9 10  2  0
 10 11  1  0
 11 12  2  3
 12 13  1  0
 13 14  2  0
 13 15  1  0
 15 16  1  0
 16 17  2  0
 17 18  1  0
 18 19  2  0
 19 20  1  0
 20 21  2  0
 21 22  1  0
 22 23  2  0
 10 24  1  0
 24  7  1  0
 22 12  1  0
 21 16  1  0
  1 25  1  0
  1 26  1  0
  1 27  1  0
  3 28  1  0
  3 29  1  0
  5 30  1  0
  5 31  1  0
  5 32  1  0
  6 33  1  0
  6 34  1  0
  6 35  1  0
  8 36  1  0
  9 37  1  0
 11 38  1  0
 15 39  1  0
 17 40  1  0
 18 41  1  0
 19 42  1  0
 20 43  1  0
M  END
$$$$
