
     RDKit          3D

 51 53  0  0  0  0  0  0  0  0999 V2000
    6.3122   -0.2524    0.7950 C   0  0  0  0  0  0  0  0  0  0  0  0
    5.1723   -0.6084   -0.1366 C   0  0  0  0  0  0  0  0  0  0  0  0
    4.4457   -1.6241    0.2136 N   0  0  0  0  0  0  0  0  0  0  0  0
    3.4204   -2.0309   -0.5942 C   0  0  0  0  0  0  0  0  0  0  0  0
    2.2943   -1.3527   -0.8611 C   0  0  0  0  0  0  0  0  0  0  0  0
    1.9823    0.0018   -0.4116 C   0  0  0  0  0  0  0  0  0  0  0  0
    0.7488    0.3123    0.3115 C   0  0  0  0  0  0  0  0  0  0  0  0
    0.0399   -0.5774    1.0260 C   0  0  0  0  0  0  0  0  0  0  0  0
   -1.2030   -0.2040    1.7283 C   0  0  0  0  0  0  0  0  0  0  0  0
   -1.1253    0.5403    2.9337 C   0  0  0  0  0  0  0  0  0  0  0  0
    0.1025    0.8004    3.5736 N   0  0  0  0  0  0  0  0  0  0  0  0
   -2.3020    0.8277    3.6349 C   0  0  0  0  0  0  0  0  0  0  0  0
   -3.5431    0.4482    3.1341 C   0  0  0  0  0  0  0  0  0  0  0  0
   -3.6225   -0.2557    1.9355 C   0  0  0  0  0  0  0  0  0  0  0  0
   -2.4657   -0.5898    1.2073 C   0  0  0  0  0  0  0  0  0  0  0  0
   -2.6179   -1.3940   -0.0761 C   0  0  0  0  0  0  0  0  0  0  0  0
   -3.0317   -0.6742   -1.2848 N   0  0  0  0  0  0  0  0  0  0  0  0
   -2.1215    0.3969   -1.7091 C   0  0  0  0  0  0  0  0  0  0  0  0
   -2.7482    1.2356   -2.8342 C   0  0  0  0  0  0  0  0  0  0  0  0
   -3.9461    1.9151   -2.4287 O   0  0  0  0  0  0  0  0  0  0  0  0
   -4.6298    1.2586   -1.3514 C   0  0  0  0  0  0  0  0  0  0  0  0
   -4.4401   -0.2672   -1.3561 C   0  0  0  0  0  0  0  0  0  0  0  0
    2.7626    1.0378   -0.7916 C   0  0  0  0  0  0  0  0  0  0  0  0
    3.9552    0.9636   -1.6156 C   0  0  0  0  0  0  0  0  0  0  0  0
    5.0678    0.2447   -1.3697 C   0  0  0  0  0  0  0  0  0  0  0  0
    6.1907    0.2211   -2.1785 O   0  0  0  0  0  0  0  0  0  0  0  0
    6.6618    1.7075   -2.8127 Cl  0  0  0  0  0  0  0  0  0  0  0  0
    5.9577   -0.2670    1.8301 H   0  0  0  0  0  0  0  0  0  0  0  0
    6.7091    0.7430    0.5769 H   0  0  0  0  0  0  0  0  0  0  0  0
    7.1111   -0.9905    0.6814 H   0  0  0  0  0  0  0  0  0  0  0  0
    3.5120   -3.0502   -0.9649 H   0  0  0  0  0  0  0  0  0  0  0  0
    1.5166   -1.8420   -1.4427 H   0  0  0  0  0  0  0  0  0  0  0  0
    0.3958    1.3416    0.2601 H   0  0  0  0  0  0  0  0  0  0  0  0
    0.3465   -1.6138    1.1355 H   0  0  0  0  0  0  0  0  0  0  0  0
    0.9034    0.7982    2.9491 H   0  0  0  0  0  0  0  0  0  0  0  0
    0.0877    1.6030    4.1928 H   0  0  0  0  0  0  0  0  0  0  0  0
   -2.2548    1.3351    4.5948 H   0  0  0  0  0  0  0  0  0  0  0  0
   -4.4466    0.6770    3.6930 H   0  0  0  0  0  0  0  0  0  0  0  0
   -4.6027   -0.5704    1.5872 H   0  0  0  0  0  0  0  0  0  0  0  0
   -1.6862   -1.9262   -0.3014 H   0  0  0  0  0  0  0  0  0  0  0  0
   -3.3284   -2.2104    0.1162 H   0  0  0  0  0  0  0  0  0  0  0  0
   -1.1811   -0.0386   -2.0628 H   0  0  0  0  0  0  0  0  0  0  0  0
   -1.9022    1.0757   -0.8781 H   0  0  0  0  0  0  0  0  0  0  0  0
   -2.0397    1.9980   -3.1740 H   0  0  0  0  0  0  0  0  0  0  0  0
   -2.9897    0.6080   -3.7001 H   0  0  0  0  0  0  0  0  0  0  0  0
   -4.2787    1.6953   -0.4094 H   0  0  0  0  0  0  0  0  0  0  0  0
   -5.6929    1.5034   -1.4444 H   0  0  0  0  0  0  0  0  0  0  0  0
   -4.8289   -0.6506   -2.3084 H   0  0  0  0  0  0  0  0  0  0  0  0
   -5.0532   -0.7324   -0.5784 H   0  0  0  0  0  0  0  0  0  0  0  0
    2.4777    2.0562   -0.5303 H   0  0  0  0  0  0  0  0  0  0  0  0
    3.9080    1.5895   -2.5035 H   0  0  0  0  0  0  0  0  0  0  0  0
  1  2  1  0
  2  3  2  3
  3  4  1  0
  4  5  2  3
  5  6  1  0
  6  7  1  0
  7  8  2  3
  8  9  1  0
  9 10  2  0
 10 11  1  0
 10 12  1  0
 12 13  2  0
 13 14  1  0
 14 15  2  0
 15 16  1  0
 16 17  1  0
 17 18  1  0
 18 19  1  0
 19 20  1  0
 20 21  1  0
 21 22  1  0
  6 23  2  3
 23 24  1  0
 24 25  2  3
 25 26  1  0
 26 27  1  0
 25  2  1  0
 15  9  1  0
 22 17  1  0
  1 28  1  0
  1 29  1  0
  1 30  1  0
  4 31  1  0
  5 32  1  0
  7 33  1  0
  8 34  1  0
 11 35  1  0
 11 36  1  0
 12 37  1  0
 13 38  1  0
 14 39  1  0
 16 40  1  0
 16 41  1  0
 18 42  1  0
 18 43  1  0
 19 44  1  0
 19 45  1  0
 21 46  1  0
 21 47  1  0
 22 48  1  0
 22 49  1  0
 23 50  1  0
 24 51  1  0
M  END
$$$$
