
     RDKit          3D

 44 46  0  0  0  0  0  0  0  0999 V2000
   -0.2534   -3.0898    2.4237 N   0  0  0  0  0  0  0  0  0  0  0  0
    0.5723   -2.2582    1.6520 C   0  0  0  0  0  0  0  0  0  0  0  0
    1.8074   -2.0397    2.1425 N   0  0  0  0  0  0  0  0  0  0  0  0
    2.6440   -1.2397    1.4359 C   0  0  0  0  0  0  0  0  0  0  0  0
    2.3222   -0.6110    0.2358 C   0  0  0  0  0  0  0  0  0  0  0  0
    3.2796    0.2431   -0.4796 C   0  0  0  0  0  0  0  0  0  0  0  0
    3.5547    0.0397   -1.8426 C   0  0  0  0  0  0  0  0  0  0  0  0
    4.4634    0.8539   -2.5243 C   0  0  0  0  0  0  0  0  0  0  0  0
    5.1119    1.8878   -1.8546 C   0  0  0  0  0  0  0  0  0  0  0  0
    4.8538    2.1076   -0.5043 C   0  0  0  0  0  0  0  0  0  0  0  0
    3.9458    1.2921    0.1768 C   0  0  0  0  0  0  0  0  0  0  0  0
    1.0299   -0.8372   -0.2468 C   0  0  0  0  0  0  0  0  0  0  0  0
    0.1337   -1.6403    0.4748 C   0  0  0  0  0  0  0  0  0  0  0  0
   -1.2392   -1.8818   -0.0402 C   0  0  0  0  0  0  0  0  0  0  0  0
   -1.6853   -3.0273    0.0406 O   0  0  0  0  0  0  0  0  0  0  0  0
   -1.9353   -0.8374   -0.6753 N   0  0  0  0  0  0  0  0  0  0  0  0
   -3.0610   -1.2422   -1.5320 C   0  0  0  0  0  0  0  0  0  0  0  0
   -4.3706   -1.4184   -0.7594 C   0  0  0  0  0  0  0  0  0  0  0  0
   -5.4290   -1.7044   -1.6689 O   0  0  0  0  0  0  0  0  0  0  0  0
   -1.8637    0.5389   -0.2706 C   0  0  0  0  0  0  0  0  0  0  0  0
   -1.5449    0.8950    1.0501 C   0  0  0  0  0  0  0  0  0  0  0  0
   -1.4804    2.2358    1.4430 C   0  0  0  0  0  0  0  0  0  0  0  0
   -1.7424    3.2447    0.5218 C   0  0  0  0  0  0  0  0  0  0  0  0
   -2.0731    2.9058   -0.7859 C   0  0  0  0  0  0  0  0  0  0  0  0
   -2.3961    4.1502   -1.9306 Cl  0  0  0  0  0  0  0  0  0  0  0  0
   -2.1399    1.5674   -1.1823 C   0  0  0  0  0  0  0  0  0  0  0  0
   -0.6607   -3.7901    1.7973 H   0  0  0  0  0  0  0  0  0  0  0  0
   -1.0395   -2.5615    2.7857 H   0  0  0  0  0  0  0  0  0  0  0  0
    3.6299   -1.1281    1.8819 H   0  0  0  0  0  0  0  0  0  0  0  0
    3.0711   -0.7696   -2.3865 H   0  0  0  0  0  0  0  0  0  0  0  0
    4.6664    0.6768   -3.5775 H   0  0  0  0  0  0  0  0  0  0  0  0
    5.8188    2.5212   -2.3845 H   0  0  0  0  0  0  0  0  0  0  0  0
    5.3572    2.9156    0.0205 H   0  0  0  0  0  0  0  0  0  0  0  0
    3.7533    1.4942    1.2289 H   0  0  0  0  0  0  0  0  0  0  0  0
    0.7175   -0.3801   -1.1829 H   0  0  0  0  0  0  0  0  0  0  0  0
   -3.1969   -0.5458   -2.3645 H   0  0  0  0  0  0  0  0  0  0  0  0
   -2.8101   -2.1957   -2.0159 H   0  0  0  0  0  0  0  0  0  0  0  0
   -4.6298   -0.5058   -0.2134 H   0  0  0  0  0  0  0  0  0  0  0  0
   -4.2943   -2.2403   -0.0406 H   0  0  0  0  0  0  0  0  0  0  0  0
   -6.2183   -1.8966   -1.1332 H   0  0  0  0  0  0  0  0  0  0  0  0
   -1.3763    0.1430    1.8160 H   0  0  0  0  0  0  0  0  0  0  0  0
   -1.2330    2.4889    2.4716 H   0  0  0  0  0  0  0  0  0  0  0  0
   -1.6909    4.2864    0.8277 H   0  0  0  0  0  0  0  0  0  0  0  0
   -2.3686    1.3528   -2.2215 H   0  0  0  0  0  0  0  0  0  0  0  0
  1  2  1  0
  2  3  2  0
  3  4  1  0
  4  5  2  0
  5  6  1  0
  6  7  2  0
  7  8  1  0
  8  9  2  0
  9 10  1  0
 10 11  2  0
  5 12  1  0
 12 13  2  0
 13 14  1  0
 14 15  2  0
 14 16  1  0
 16 17  1  0
 17 18  1  0
 18 19  1  0
 16 20  1  0
 20 21  2  0
 21 22  1  0
 22 23  2  0
 23 24  1  0
 24 25  1  0
 24 26  2  0
 13  2  1  0
 26 20  1  0
 11  6  1  0
  1 27  1  0
  1 28  1  0
  4 29  1  0
  7 30  1  0
  8 31  1  0
  9 32  1  0
 10 33  1  0
 11 34  1  0
 12 35  1  0
 17 36  1  0
 17 37  1  0
 18 38  1  0
 18 39  1  0
 19 40  1  0
 21 41  1  0
 22 42  1  0
 23 43  1  0
 26 44  1  0
M  END
$$$$
