
     RDKit          3D

 56 59  0  0  0  0  0  0  0  0999 V2000
    8.0366    1.1263    0.3179 C   0  0  0  0  0  0  0  0  0  0  0  0
    6.6240    1.4083    0.8093 C   0  0  0  0  0  0  0  0  0  0  0  0
    5.8242    0.1097    0.9782 C   0  0  0  0  0  0  0  0  0  0  0  0
    4.4879    0.3286    1.5520 N   0  0  0  0  0  0  0  0  0  0  0  0
    3.8334   -0.9449    1.9085 C   0  0  0  0  0  0  0  0  0  0  0  0
    2.8537   -1.4808    0.8516 C   0  0  0  0  0  0  0  0  0  0  0  0
    1.7981   -0.4575    0.4647 C   0  0  0  0  0  0  0  0  0  0  0  0
    0.7109   -0.8484   -0.2315 C   0  0  0  0  0  0  0  0  0  0  0  0
   -0.3819   -0.0061   -0.8334 C   0  0  0  0  0  0  0  0  0  0  0  0
   -0.6544   -0.3953   -2.2758 C   0  0  0  0  0  0  0  0  0  0  0  0
   -1.9247   -0.7784   -2.3495 C   0  0  0  0  0  0  0  0  0  0  0  0
   -2.7736   -1.2540   -3.3091 N   0  0  0  0  0  0  0  0  0  0  0  0
   -3.9052   -1.4477   -2.6491 C   0  0  0  0  0  0  0  0  0  0  0  0
   -5.1147   -2.0051   -3.3326 C   0  0  0  0  0  0  0  0  0  0  0  0
   -3.8604   -1.1054   -1.2932 N   0  0  0  0  0  0  0  0  0  0  0  0
   -4.8748   -1.4240   -0.3129 C   0  0  0  0  0  0  0  0  0  0  0  0
   -5.1017   -0.3078    0.6858 C   0  0  0  0  0  0  0  0  0  0  0  0
   -4.6499   -0.4699    2.0093 C   0  0  0  0  0  0  0  0  0  0  0  0
   -4.8278    0.5423    2.9544 C   0  0  0  0  0  0  0  0  0  0  0  0
   -5.4615    1.7260    2.5881 C   0  0  0  0  0  0  0  0  0  0  0  0
   -5.6795    2.9721    3.7536 Cl  0  0  0  0  0  0  0  0  0  0  0  0
   -5.9227    1.9064    1.2878 C   0  0  0  0  0  0  0  0  0  0  0  0
   -5.7453    0.8933    0.3412 C   0  0  0  0  0  0  0  0  0  0  0  0
   -6.3637    1.1732   -1.2471 Cl  0  0  0  0  0  0  0  0  0  0  0  0
   -2.5828   -0.6972   -1.0729 C   0  0  0  0  0  0  0  0  0  0  0  0
   -1.7213   -0.2653   -0.1534 C   0  0  0  0  0  0  0  0  0  0  0  0
    2.1570    0.9110    0.8523 C   0  0  0  0  0  0  0  0  0  0  0  0
    1.2747    1.7733    1.3788 C   0  0  0  0  0  0  0  0  0  0  0  0
    1.6212    3.3688    1.8977 Cl  0  0  0  0  0  0  0  0  0  0  0  0
    3.6423    1.1795    0.6860 C   0  0  0  0  0  0  0  0  0  0  0  0
    8.5812    0.4959    1.0280 H   0  0  0  0  0  0  0  0  0  0  0  0
    8.5910    2.0629    0.2014 H   0  0  0  0  0  0  0  0  0  0  0  0
    8.0199    0.6181   -0.6515 H   0  0  0  0  0  0  0  0  0  0  0  0
    6.1353    2.0754    0.0907 H   0  0  0  0  0  0  0  0  0  0  0  0
    6.6779    1.9410    1.7663 H   0  0  0  0  0  0  0  0  0  0  0  0
    5.7513   -0.4138    0.0161 H   0  0  0  0  0  0  0  0  0  0  0  0
    6.3969   -0.5406    1.6522 H   0  0  0  0  0  0  0  0  0  0  0  0
    4.5691   -1.7209    2.1542 H   0  0  0  0  0  0  0  0  0  0  0  0
    3.2788   -0.7758    2.8419 H   0  0  0  0  0  0  0  0  0  0  0  0
    3.4157   -1.7700   -0.0459 H   0  0  0  0  0  0  0  0  0  0  0  0
    2.3729   -2.3849    1.2452 H   0  0  0  0  0  0  0  0  0  0  0  0
    0.6092   -1.9162   -0.4350 H   0  0  0  0  0  0  0  0  0  0  0  0
   -0.1524    1.0634   -0.8052 H   0  0  0  0  0  0  0  0  0  0  0  0
    0.0494   -0.3647   -3.0904 H   0  0  0  0  0  0  0  0  0  0  0  0
   -5.3870   -2.9585   -2.8722 H   0  0  0  0  0  0  0  0  0  0  0  0
   -5.9485   -1.3057   -3.2362 H   0  0  0  0  0  0  0  0  0  0  0  0
   -4.9099   -2.1689   -4.3940 H   0  0  0  0  0  0  0  0  0  0  0  0
   -4.5828   -2.3430    0.2116 H   0  0  0  0  0  0  0  0  0  0  0  0
   -5.8363   -1.6594   -0.7842 H   0  0  0  0  0  0  0  0  0  0  0  0
   -4.1449   -1.3864    2.3111 H   0  0  0  0  0  0  0  0  0  0  0  0
   -4.4685    0.4023    3.9713 H   0  0  0  0  0  0  0  0  0  0  0  0
   -6.4199    2.8327    1.0110 H   0  0  0  0  0  0  0  0  0  0  0  0
   -1.9204   -0.0947    0.8907 H   0  0  0  0  0  0  0  0  0  0  0  0
    0.2331    1.5384    1.5526 H   0  0  0  0  0  0  0  0  0  0  0  0
    3.8874    2.2265    0.8907 H   0  0  0  0  0  0  0  0  0  0  0  0
    3.8835    1.0159   -0.3748 H   0  0  0  0  0  0  0  0  0  0  0  0
  1  2  1  0
  2  3  1  0
  3  4  1  0
  4  5  1  0
  5  6  1  0
  6  7  1  0
  7  8  2  3
  8  9  1  0
  9 10  1  0
 10 11  2  0
 11 12  1  0
 12 13  2  0
 13 14  1  0
 13 15  1  0
 15 16  1  0
 16 17  1  0
 17 18  2  0
 18 19  1  0
 19 20  2  0
 20 21  1  0
 20 22  1  0
 22 23  2  0
 23 24  1  0
 15 25  1  0
 25 26  2  0
  7 27  1  0
 27 28  2  3
 28 29  1  0
 27 30  1  0
 30  4  1  0
 26  9  1  0
 25 11  1  0
 23 17  1  0
  1 31  1  0
  1 32  1  0
  1 33  1  0
  2 34  1  0
  2 35  1  0
  3 36  1  0
  3 37  1  0
  5 38  1  0
  5 39  1  0
  6 40  1  0
  6 41  1  0
  8 42  1  0
  9 43  1  0
 10 44  1  0
 14 45  1  0
 14 46  1  0
 14 47  1  0
 16 48  1  0
 16 49  1  0
 18 50  1  0
 19 51  1  0
 22 52  1  0
 26 53  1  0
 28 54  1  0
 30 55  1  0
 30 56  1  0
M  END
$$$$
