
     RDKit          3D

 47 48  0  0  0  0  0  0  0  0999 V2000
    5.5546    2.7187   -2.1711 C   0  0  0  0  0  0  0  0  0  0  0  0
    4.3945    1.7831   -1.8458 C   0  0  0  0  0  0  0  0  0  0  0  0
    4.7859    0.5309   -1.0918 C   0  0  0  0  0  0  0  0  0  0  0  0
    6.0588    0.4499   -0.6136 N   0  0  0  0  0  0  0  0  0  0  0  0
    6.4136   -0.6853    0.0229 C   0  0  0  0  0  0  0  0  0  0  0  0
    5.5584   -1.7561    0.2235 C   0  0  0  0  0  0  0  0  0  0  0  0
    4.2544   -1.6503   -0.2485 C   0  0  0  0  0  0  0  0  0  0  0  0
    3.8389   -0.4894   -0.9026 C   0  0  0  0  0  0  0  0  0  0  0  0
    2.5207   -0.4025   -1.3871 N   0  0  0  0  0  0  0  0  0  0  0  0
    1.6361    0.0153   -0.5357 C   0  0  0  0  0  0  0  0  0  0  0  0
    0.1820    0.1420   -0.9315 C   0  0  0  0  0  0  0  0  0  0  0  0
   -0.6722   -0.8634   -0.1968 C   0  0  0  0  0  0  0  0  0  0  0  0
   -0.3122   -2.1388    0.0353 C   0  0  0  0  0  0  0  0  0  0  0  0
   -1.0108   -3.1209    0.6952 N   0  0  0  0  0  0  0  0  0  0  0  0
   -1.9828   -0.3570    0.2469 C   0  0  0  0  0  0  0  0  0  0  0  0
   -2.1540    0.1418    1.5424 C   0  0  0  0  0  0  0  0  0  0  0  0
   -3.3955    0.6332    1.9540 C   0  0  0  0  0  0  0  0  0  0  0  0
   -3.4172    1.1064    3.2387 O   0  0  0  0  0  0  0  0  0  0  0  0
   -4.6466    1.6519    3.7045 C   0  0  0  0  0  0  0  0  0  0  0  0
   -4.4799    0.6093    1.0680 C   0  0  0  0  0  0  0  0  0  0  0  0
   -4.3218    0.1009   -0.2270 C   0  0  0  0  0  0  0  0  0  0  0  0
   -5.2988    0.0124   -1.1852 O   0  0  0  0  0  0  0  0  0  0  0  0
   -6.6041    0.4481   -0.8191 C   0  0  0  0  0  0  0  0  0  0  0  0
   -3.0723   -0.3743   -0.6326 C   0  0  0  0  0  0  0  0  0  0  0  0
    6.0371    3.0885   -1.2616 H   0  0  0  0  0  0  0  0  0  0  0  0
    5.1932    3.5816   -2.7355 H   0  0  0  0  0  0  0  0  0  0  0  0
    6.3118    2.2134   -2.7758 H   0  0  0  0  0  0  0  0  0  0  0  0
    3.9166    1.4933   -2.7899 H   0  0  0  0  0  0  0  0  0  0  0  0
    3.6567    2.3314   -1.2506 H   0  0  0  0  0  0  0  0  0  0  0  0
    7.4405   -0.7140    0.3730 H   0  0  0  0  0  0  0  0  0  0  0  0
    5.8973   -2.6515    0.7321 H   0  0  0  0  0  0  0  0  0  0  0  0
    3.5576   -2.4733   -0.1125 H   0  0  0  0  0  0  0  0  0  0  0  0
    1.8955    0.2916    0.5060 H   0  0  0  0  0  0  0  0  0  0  0  0
   -0.1140    1.1707   -0.6764 H   0  0  0  0  0  0  0  0  0  0  0  0
    0.0695    0.0134   -2.0161 H   0  0  0  0  0  0  0  0  0  0  0  0
    0.6482   -2.5090   -0.3250 H   0  0  0  0  0  0  0  0  0  0  0  0
   -0.8727   -4.0484    0.3010 H   0  0  0  0  0  0  0  0  0  0  0  0
   -1.9994   -2.9025    0.8033 H   0  0  0  0  0  0  0  0  0  0  0  0
   -1.3189    0.1464    2.2410 H   0  0  0  0  0  0  0  0  0  0  0  0
   -4.4862    2.0093    4.7242 H   0  0  0  0  0  0  0  0  0  0  0  0
   -4.9586    2.5059    3.0944 H   0  0  0  0  0  0  0  0  0  0  0  0
   -5.4296    0.8858    3.7357 H   0  0  0  0  0  0  0  0  0  0  0  0
   -5.4448    0.9820    1.3866 H   0  0  0  0  0  0  0  0  0  0  0  0
   -7.0107   -0.1719   -0.0103 H   0  0  0  0  0  0  0  0  0  0  0  0
   -6.6108    1.5141   -0.5477 H   0  0  0  0  0  0  0  0  0  0  0  0
   -7.2529    0.3273   -1.6949 H   0  0  0  0  0  0  0  0  0  0  0  0
   -2.9548   -0.7670   -1.6441 H   0  0  0  0  0  0  0  0  0  0  0  0
  1  2  1  0
  2  3  1  0
  3  4  2  0
  4  5  1  0
  5  6  2  0
  6  7  1  0
  7  8  2  0
  8  9  1  0
  9 10  2  3
 10 11  1  0
 11 12  1  0
 12 13  2  3
 13 14  1  0
 12 15  1  0
 15 16  2  0
 16 17  1  0
 17 18  1  0
 18 19  1  0
 17 20  2  0
 20 21  1  0
 21 22  1  0
 22 23  1  0
 21 24  2  0
  8  3  1  0
 24 15  1  0
  1 25  1  0
  1 26  1  0
  1 27  1  0
  2 28  1  0
  2 29  1  0
  5 30  1  0
  6 31  1  0
  7 32  1  0
 10 33  1  0
 11 34  1  0
 11 35  1  0
 13 36  1  0
 14 37  1  0
 14 38  1  0
 16 39  1  0
 19 40  1  0
 19 41  1  0
 19 42  1  0
 20 43  1  0
 23 44  1  0
 23 45  1  0
 23 46  1  0
 24 47  1  0
M  END
$$$$
