
     RDKit          3D

 41 43  0  0  0  0  0  0  0  0999 V2000
   -5.5345    1.7526   -1.2175 O   0  0  0  0  0  0  0  0  0  0  0  0
   -5.2378    0.6327   -2.0506 C   0  0  0  0  0  0  0  0  0  0  0  0
   -3.8541    0.0692   -1.7240 C   0  0  0  0  0  0  0  0  0  0  0  0
   -3.8604   -0.7967   -0.5830 O   0  0  0  0  0  0  0  0  0  0  0  0
   -4.0310   -0.0948    0.6568 C   0  0  0  0  0  0  0  0  0  0  0  0
   -3.7076   -1.0490    1.8156 C   0  0  0  0  0  0  0  0  0  0  0  0
   -2.3454   -1.5691    1.7303 N   0  0  0  0  0  0  0  0  0  0  0  0
   -1.3391   -0.6531    1.9914 C   0  0  0  0  0  0  0  0  0  0  0  0
   -1.5085    0.2946    2.9194 N   0  0  0  0  0  0  0  0  0  0  0  0
   -0.4853    1.1408    3.1143 C   0  0  0  0  0  0  0  0  0  0  0  0
    0.6934    1.0803    2.4129 C   0  0  0  0  0  0  0  0  0  0  0  0
    0.7932    0.0770    1.4702 C   0  0  0  0  0  0  0  0  0  0  0  0
    1.9745   -0.1300    0.6168 C   0  0  0  0  0  0  0  0  0  0  0  0
    1.8654   -0.7266   -0.6347 C   0  0  0  0  0  0  0  0  0  0  0  0
    2.8932   -0.9439   -1.4965 N   0  0  0  0  0  0  0  0  0  0  0  0
    4.1262   -0.5748   -1.1202 C   0  0  0  0  0  0  0  0  0  0  0  0
    5.1986   -0.7888   -1.9767 C   0  0  0  0  0  0  0  0  0  0  0  0
    6.5027   -0.4245   -1.6280 C   0  0  0  0  0  0  0  0  0  0  0  0
    6.7486    0.1678   -0.3952 C   0  0  0  0  0  0  0  0  0  0  0  0
    5.6890    0.3930    0.4804 C   0  0  0  0  0  0  0  0  0  0  0  0
    4.3760    0.0256    0.1236 C   0  0  0  0  0  0  0  0  0  0  0  0
    3.2754    0.2339    0.9718 C   0  0  0  0  0  0  0  0  0  0  0  0
    3.5040    0.7940    2.1737 F   0  0  0  0  0  0  0  0  0  0  0  0
   -0.2295   -0.7822    1.2533 N   0  0  0  0  0  0  0  0  0  0  0  0
   -6.4299    2.0500   -1.4552 H   0  0  0  0  0  0  0  0  0  0  0  0
   -5.2625    0.9815   -3.0873 H   0  0  0  0  0  0  0  0  0  0  0  0
   -6.0138   -0.1238   -1.8984 H   0  0  0  0  0  0  0  0  0  0  0  0
   -3.5224   -0.5487   -2.5648 H   0  0  0  0  0  0  0  0  0  0  0  0
   -3.1152    0.8654   -1.5790 H   0  0  0  0  0  0  0  0  0  0  0  0
   -3.3798    0.7858    0.6858 H   0  0  0  0  0  0  0  0  0  0  0  0
   -5.0732    0.2257    0.7492 H   0  0  0  0  0  0  0  0  0  0  0  0
   -3.9009   -0.5691    2.7820 H   0  0  0  0  0  0  0  0  0  0  0  0
   -4.3805   -1.9124    1.7523 H   0  0  0  0  0  0  0  0  0  0  0  0
   -2.1380   -1.9626    0.8159 H   0  0  0  0  0  0  0  0  0  0  0  0
   -0.6478    1.8977    3.8759 H   0  0  0  0  0  0  0  0  0  0  0  0
    1.4795    1.7985    2.6008 H   0  0  0  0  0  0  0  0  0  0  0  0
    0.8997   -1.0612   -1.0113 H   0  0  0  0  0  0  0  0  0  0  0  0
    5.0134   -1.2546   -2.9421 H   0  0  0  0  0  0  0  0  0  0  0  0
    7.3199   -0.6076   -2.3211 H   0  0  0  0  0  0  0  0  0  0  0  0
    7.7599    0.4520   -0.1156 H   0  0  0  0  0  0  0  0  0  0  0  0
    5.8847    0.8555    1.4461 H   0  0  0  0  0  0  0  0  0  0  0  0
  1  2  1  0
  2  3  1  0
  3  4  1  0
  4  5  1  0
  5  6  1  0
  6  7  1  0
  7  8  1  0
  8  9  2  0
  9 10  1  0
 10 11  2  0
 11 12  1  0
 12 13  1  0
 13 14  2  0
 14 15  1  0
 15 16  2  0
 16 17  1  0
 17 18  2  0
 18 19  1  0
 19 20  2  0
 20 21  1  0
 21 22  2  0
 22 23  1  0
 12 24  2  0
 24  8  1  0
 22 13  1  0
 21 16  1  0
  1 25  1  0
  2 26  1  0
  2 27  1  0
  3 28  1  0
  3 29  1  0
  5 30  1  0
  5 31  1  0
  6 32  1  0
  6 33  1  0
  7 34  1  0
 10 35  1  0
 11 36  1  0
 14 37  1  0
 17 38  1  0
 18 39  1  0
 19 40  1  0
 20 41  1  0
M  END
$$$$
