
     RDKit          3D

 43 45  0  0  0  0  0  0  0  0999 V2000
   -5.3940   -2.4239    0.8405 C   0  0  0  0  0  0  0  0  0  0  0  0
   -4.2199   -1.8499    1.3995 O   0  0  0  0  0  0  0  0  0  0  0  0
   -3.1784   -1.6445    0.4407 C   0  0  0  0  0  0  0  0  0  0  0  0
   -3.4235   -0.3840   -0.3897 C   0  0  0  0  0  0  0  0  0  0  0  0
   -2.0273   -0.0131   -1.5049 S   0  0  0  0  0  0  0  0  0  0  0  0
   -0.8750    0.7708   -0.3069 C   0  0  0  0  0  0  0  0  0  0  0  0
   -0.8825    2.3102   -0.4231 C   0  0  0  0  0  0  0  0  0  0  0  0
   -2.1304    2.9607    0.1101 C   0  0  0  0  0  0  0  0  0  0  0  0
   -2.4071    3.1562    1.5040 C   0  0  0  0  0  0  0  0  0  0  0  0
   -3.6212    3.7680    1.7223 C   0  0  0  0  0  0  0  0  0  0  0  0
   -4.4328    4.1204    0.2611 S   0  0  0  0  0  0  0  0  0  0  0  0
   -3.1583    3.4607   -0.6683 C   0  0  0  0  0  0  0  0  0  0  0  0
    0.4163    0.2149   -0.6408 N   0  0  0  0  0  0  0  0  0  0  0  0
    1.4797    0.2697    0.2352 C   0  0  0  0  0  0  0  0  0  0  0  0
    1.3584    0.8002    1.3373 O   0  0  0  0  0  0  0  0  0  0  0  0
    2.7088   -0.3301   -0.2474 C   0  0  0  0  0  0  0  0  0  0  0  0
    3.0505   -0.9860   -1.4197 C   0  0  0  0  0  0  0  0  0  0  0  0
    4.4194   -1.3501   -1.3131 C   0  0  0  0  0  0  0  0  0  0  0  0
    5.3503   -2.0167   -2.1290 C   0  0  0  0  0  0  0  0  0  0  0  0
    6.6586   -2.1890   -1.6531 C   0  0  0  0  0  0  0  0  0  0  0  0
    7.0369   -1.7111   -0.3953 C   0  0  0  0  0  0  0  0  0  0  0  0
    6.1240   -1.0460    0.4297 C   0  0  0  0  0  0  0  0  0  0  0  0
    4.8341   -0.8910   -0.0712 C   0  0  0  0  0  0  0  0  0  0  0  0
    3.8070   -0.2770    0.5722 O   0  0  0  0  0  0  0  0  0  0  0  0
   -5.8575   -1.7443    0.1206 H   0  0  0  0  0  0  0  0  0  0  0  0
   -5.1656   -3.3821    0.3642 H   0  0  0  0  0  0  0  0  0  0  0  0
   -6.1059   -2.6014    1.6512 H   0  0  0  0  0  0  0  0  0  0  0  0
   -2.2541   -1.5432    1.0186 H   0  0  0  0  0  0  0  0  0  0  0  0
   -3.0695   -2.5333   -0.1926 H   0  0  0  0  0  0  0  0  0  0  0  0
   -4.3092   -0.5213   -1.0179 H   0  0  0  0  0  0  0  0  0  0  0  0
   -3.6440    0.4690    0.2582 H   0  0  0  0  0  0  0  0  0  0  0  0
   -1.1197    0.4624    0.7149 H   0  0  0  0  0  0  0  0  0  0  0  0
   -0.0328    2.7251    0.1356 H   0  0  0  0  0  0  0  0  0  0  0  0
   -0.7139    2.6153   -1.4650 H   0  0  0  0  0  0  0  0  0  0  0  0
   -1.7442    2.8583    2.3093 H   0  0  0  0  0  0  0  0  0  0  0  0
   -4.0704    4.0272    2.6713 H   0  0  0  0  0  0  0  0  0  0  0  0
   -3.2293    3.4636   -1.7480 H   0  0  0  0  0  0  0  0  0  0  0  0
    0.5072   -0.2049   -1.5523 H   0  0  0  0  0  0  0  0  0  0  0  0
    2.4006   -1.1867   -2.2586 H   0  0  0  0  0  0  0  0  0  0  0  0
    5.0687   -2.3929   -3.1079 H   0  0  0  0  0  0  0  0  0  0  0  0
    7.3900   -2.7031   -2.2736 H   0  0  0  0  0  0  0  0  0  0  0  0
    8.0582   -1.8581   -0.0498 H   0  0  0  0  0  0  0  0  0  0  0  0
    6.3979   -0.6689    1.4075 H   0  0  0  0  0  0  0  0  0  0  0  0
  1  2  1  0
  2  3  1  0
  3  4  1  0
  4  5  1  0
  5  6  1  0
  6  7  1  0
  7  8  1  0
  8  9  1  0
  9 10  2  0
 10 11  1  0
 11 12  1  0
  6 13  1  0
 13 14  1  0
 14 15  2  0
 14 16  1  0
 16 17  2  0
 17 18  1  0
 18 19  2  0
 19 20  1  0
 20 21  2  0
 21 22  1  0
 22 23  2  0
 23 24  1  0
 12  8  2  0
 24 16  1  0
 23 18  1  0
  1 25  1  0
  1 26  1  0
  1 27  1  0
  3 28  1  0
  3 29  1  0
  4 30  1  0
  4 31  1  0
  6 32  1  0
  7 33  1  0
  7 34  1  0
  9 35  1  0
 10 36  1  0
 12 37  1  0
 13 38  1  0
 17 39  1  0
 19 40  1  0
 20 41  1  0
 21 42  1  0
 22 43  1  0
M  END
$$$$
