
     RDKit          3D

 38 39  0  0  0  0  0  0  0  0999 V2000
   -1.2881    4.5950   -1.5673 C   0  0  0  0  0  0  0  0  0  0  0  0
   -0.9427    3.4405   -0.9776 C   0  0  0  0  0  0  0  0  0  0  0  0
    0.3263    2.7104   -1.1010 C   0  0  0  0  0  0  0  0  0  0  0  0
    1.5203    3.4605   -2.1543 Cl  0  0  0  0  0  0  0  0  0  0  0  0
    0.6096    1.5338   -0.4687 C   0  0  0  0  0  0  0  0  0  0  0  0
    1.9006    0.8330   -0.6212 C   0  0  0  0  0  0  0  0  0  0  0  0
    2.2358   -0.3319   -0.0384 C   0  0  0  0  0  0  0  0  0  0  0  0
    3.5238   -0.9645   -0.2332 C   0  0  0  0  0  0  0  0  0  0  0  0
    3.8544   -2.1247    0.3483 C   0  0  0  0  0  0  0  0  0  0  0  0
    5.0774   -2.7156    0.1569 N   0  0  0  0  0  0  0  0  0  0  0  0
    5.4412   -3.9074    0.7430 C   0  0  0  0  0  0  0  0  0  0  0  0
    4.7607   -4.5939    1.4923 O   0  0  0  0  0  0  0  0  0  0  0  0
   -0.4357    0.9409    0.4107 C   0  0  0  0  0  0  0  0  0  0  0  0
   -0.4748    1.2497    1.7681 C   0  0  0  0  0  0  0  0  0  0  0  0
   -1.4601    0.6604    2.5344 C   0  0  0  0  0  0  0  0  0  0  0  0
   -2.3831   -0.1955    2.0442 N   0  0  0  0  0  0  0  0  0  0  0  0
   -2.3454   -0.5058    0.7235 C   0  0  0  0  0  0  0  0  0  0  0  0
   -3.3657   -1.4780    0.1816 C   0  0  0  0  0  0  0  0  0  0  0  0
   -4.3674   -1.0292   -0.8587 C   0  0  0  0  0  0  0  0  0  0  0  0
   -4.8256   -1.3150    0.5394 C   0  0  0  0  0  0  0  0  0  0  0  0
   -1.3743    0.0454   -0.1117 C   0  0  0  0  0  0  0  0  0  0  0  0
   -2.2682    5.0272   -1.3863 H   0  0  0  0  0  0  0  0  0  0  0  0
   -0.6344    5.1454   -2.2350 H   0  0  0  0  0  0  0  0  0  0  0  0
   -1.7016    3.0013   -0.3329 H   0  0  0  0  0  0  0  0  0  0  0  0
    2.6441    1.3010   -1.2614 H   0  0  0  0  0  0  0  0  0  0  0  0
    1.5370   -0.8527    0.6134 H   0  0  0  0  0  0  0  0  0  0  0  0
    4.2332   -0.4571   -0.8823 H   0  0  0  0  0  0  0  0  0  0  0  0
    3.1656   -2.6572    1.0037 H   0  0  0  0  0  0  0  0  0  0  0  0
    5.7524   -2.2589   -0.4444 H   0  0  0  0  0  0  0  0  0  0  0  0
    6.4652   -4.1986    0.4537 H   0  0  0  0  0  0  0  0  0  0  0  0
    0.2416    1.9275    2.2188 H   0  0  0  0  0  0  0  0  0  0  0  0
   -1.5394    0.8634    3.5987 H   0  0  0  0  0  0  0  0  0  0  0  0
   -3.0155   -2.5047    0.1050 H   0  0  0  0  0  0  0  0  0  0  0  0
   -4.6390   -1.7343   -1.6357 H   0  0  0  0  0  0  0  0  0  0  0  0
   -4.3626    0.0059   -1.1812 H   0  0  0  0  0  0  0  0  0  0  0  0
   -5.4016   -2.2151    0.7190 H   0  0  0  0  0  0  0  0  0  0  0  0
   -5.1095   -0.4778    1.1679 H   0  0  0  0  0  0  0  0  0  0  0  0
   -1.3546   -0.2236   -1.1639 H   0  0  0  0  0  0  0  0  0  0  0  0
  1  2  2  0
  2  3  1  0
  3  4  1  0
  3  5  2  3
  5  6  1  0
  6  7  2  3
  7  8  1  0
  8  9  2  3
  9 10  1  0
 10 11  1  0
 11 12  2  0
  5 13  1  0
 13 14  2  0
 14 15  1  0
 15 16  2  0
 16 17  1  0
 17 18  1  0
 18 19  1  0
 19 20  1  0
 17 21  2  0
 21 13  1  0
 20 18  1  0
  1 22  1  0
  1 23  1  0
  2 24  1  0
  6 25  1  0
  7 26  1  0
  8 27  1  0
  9 28  1  0
 10 29  1  0
 11 30  1  0
 14 31  1  0
 15 32  1  0
 18 33  1  0
 19 34  1  0
 19 35  1  0
 20 36  1  0
 20 37  1  0
 21 38  1  0
M  END
$$$$
