
     RDKit          3D

 55 57  0  0  0  0  0  0  0  0999 V2000
   -3.8269    2.9478   -1.1824 C   0  0  0  0  0  0  0  0  0  0  0  0
   -4.0134    1.8084   -0.1722 C   0  0  0  0  0  0  0  0  0  0  0  0
   -5.4731    1.7236    0.2825 C   0  0  0  0  0  0  0  0  0  0  0  0
   -3.5280    0.4723   -0.7212 C   0  0  0  0  0  0  0  0  0  0  0  0
   -4.0519   -0.0108   -1.9325 C   0  0  0  0  0  0  0  0  0  0  0  0
   -3.5826   -1.1938   -2.4941 C   0  0  0  0  0  0  0  0  0  0  0  0
   -2.5728   -1.9122   -1.8603 C   0  0  0  0  0  0  0  0  0  0  0  0
   -2.0283   -1.4835   -0.6336 C   0  0  0  0  0  0  0  0  0  0  0  0
   -0.8803   -2.3153   -0.0538 C   0  0  2  0  0  0  0  0  0  0  0  0
   -0.9768   -2.6246    1.4548 C   0  0  0  0  0  0  0  0  0  0  0  0
   -0.2001   -3.8154    1.8324 N   0  0  0  0  0  0  0  0  0  0  0  0
    0.5125   -1.7745   -0.4605 C   0  0  0  0  0  0  0  0  0  0  0  0
    0.7831   -0.4305    0.0513 N   0  0  0  0  0  0  0  0  0  0  0  0
    2.0272    0.1917    0.0698 C   0  0  0  0  0  0  0  0  0  0  0  0
    2.1202    1.5304    0.1470 C   0  0  0  0  0  0  0  0  0  0  0  0
    3.4039    2.3008    0.1863 C   0  0  0  0  0  0  0  0  0  0  0  0
    4.6567    1.4637    0.1655 C   0  0  0  0  0  0  0  0  0  0  0  0
    5.9074    2.1010    0.2206 C   0  0  0  0  0  0  0  0  0  0  0  0
    7.0817    1.3504    0.2077 C   0  0  0  0  0  0  0  0  0  0  0  0
    8.6060    2.1465    0.2773 Cl  0  0  0  0  0  0  0  0  0  0  0  0
    7.0294   -0.0378    0.1393 C   0  0  0  0  0  0  0  0  0  0  0  0
    5.7917   -0.6794    0.0821 C   0  0  0  0  0  0  0  0  0  0  0  0
    4.5984    0.0626    0.0943 C   0  0  0  0  0  0  0  0  0  0  0  0
    3.2773   -0.6727    0.0252 C   0  0  0  0  0  0  0  0  0  0  0  0
   -2.5454   -0.3018   -0.0576 C   0  0  0  0  0  0  0  0  0  0  0  0
   -2.0065    0.1579    1.1254 O   0  0  0  0  0  0  0  0  0  0  0  0
   -2.9517   -0.1208    2.2055 N   0  0  0  0  0  0  0  0  0  0  0  0
   -2.7871    3.0027   -1.5223 H   0  0  0  0  0  0  0  0  0  0  0  0
   -4.0814    3.9101   -0.7249 H   0  0  0  0  0  0  0  0  0  0  0  0
   -4.4626    2.8273   -2.0655 H   0  0  0  0  0  0  0  0  0  0  0  0
   -3.4138    2.0897    0.6999 H   0  0  0  0  0  0  0  0  0  0  0  0
   -6.1511    1.5330   -0.5572 H   0  0  0  0  0  0  0  0  0  0  0  0
   -5.7838    2.6628    0.7533 H   0  0  0  0  0  0  0  0  0  0  0  0
   -5.6135    0.9195    1.0134 H   0  0  0  0  0  0  0  0  0  0  0  0
   -4.8292    0.5400   -2.4577 H   0  0  0  0  0  0  0  0  0  0  0  0
   -3.9936   -1.5481   -3.4361 H   0  0  0  0  0  0  0  0  0  0  0  0
   -2.2073   -2.8186   -2.3398 H   0  0  0  0  0  0  0  0  0  0  0  0
   -0.9617   -3.2981   -0.5444 H   0  0  0  0  0  0  0  0  0  0  0  0
   -2.0188   -2.8055    1.7411 H   0  0  0  0  0  0  0  0  0  0  0  0
   -0.6043   -1.7849    2.0488 H   0  0  0  0  0  0  0  0  0  0  0  0
   -0.6438   -4.6435    1.4353 H   0  0  0  0  0  0  0  0  0  0  0  0
   -0.2537   -3.9324    2.8444 H   0  0  0  0  0  0  0  0  0  0  0  0
    0.5852   -1.7441   -1.5550 H   0  0  0  0  0  0  0  0  0  0  0  0
    1.2794   -2.4740   -0.1091 H   0  0  0  0  0  0  0  0  0  0  0  0
    0.0171    0.2215   -0.1054 H   0  0  0  0  0  0  0  0  0  0  0  0
    1.2163    2.1314    0.1914 H   0  0  0  0  0  0  0  0  0  0  0  0
    3.4074    2.9102    1.0980 H   0  0  0  0  0  0  0  0  0  0  0  0
    3.4220    2.9811   -0.6736 H   0  0  0  0  0  0  0  0  0  0  0  0
    5.9615    3.1856    0.2754 H   0  0  0  0  0  0  0  0  0  0  0  0
    7.9434   -0.6253    0.1312 H   0  0  0  0  0  0  0  0  0  0  0  0
    5.7576   -1.7659    0.0292 H   0  0  0  0  0  0  0  0  0  0  0  0
    3.2689   -1.2502   -0.9077 H   0  0  0  0  0  0  0  0  0  0  0  0
    3.2402   -1.3762    0.8669 H   0  0  0  0  0  0  0  0  0  0  0  0
   -3.1199    0.8217    2.5547 H   0  0  0  0  0  0  0  0  0  0  0  0
   -2.3314   -0.5541    2.8884 H   0  0  0  0  0  0  0  0  0  0  0  0
  1  2  1  0
  2  3  1  0
  2  4  1  0
  4  5  2  0
  5  6  1  0
  6  7  2  0
  7  8  1  0
  8  9  1  0
  9 10  1  0
 10 11  1  0
  9 12  1  0
 12 13  1  0
 13 14  1  0
 14 15  2  0
 15 16  1  0
 16 17  1  0
 17 18  2  0
 18 19  1  0
 19 20  1  0
 19 21  2  0
 21 22  1  0
 22 23  2  0
 23 24  1  0
  8 25  2  0
 25 26  1  0
 26 27  1  0
 25  4  1  0
 24 14  1  0
 23 17  1  0
  1 28  1  0
  1 29  1  0
  1 30  1  0
  2 31  1  0
  3 32  1  0
  3 33  1  0
  3 34  1  0
  5 35  1  0
  6 36  1  0
  7 37  1  0
  9 38  1  6
 10 39  1  0
 10 40  1  0
 11 41  1  0
 11 42  1  0
 12 43  1  0
 12 44  1  0
 13 45  1  0
 15 46  1  0
 16 47  1  0
 16 48  1  0
 18 49  1  0
 21 50  1  0
 22 51  1  0
 24 52  1  0
 24 53  1  0
 27 54  1  0
 27 55  1  0
M  END
$$$$
