
     RDKit          3D

 52 53  0  0  0  0  0  0  0  0999 V2000
    5.8336   -3.2912   -0.7509 C   0  0  0  0  0  0  0  0  0  0  0  0
    5.6746   -1.9364   -0.3504 O   0  0  0  0  0  0  0  0  0  0  0  0
    5.2737   -1.0737   -1.4233 C   0  0  0  0  0  0  0  0  0  0  0  0
    3.7712   -1.1855   -1.7311 C   0  0  0  0  0  0  0  0  0  0  0  0
    2.9801   -0.8659   -0.5363 N   0  0  0  0  0  0  0  0  0  0  0  0
    1.5580   -1.1771   -0.7387 C   0  0  0  0  0  0  0  0  0  0  0  0
    0.7170   -0.8293    0.5008 C   0  0  0  0  0  0  0  0  0  0  0  0
    0.4482    0.6545    0.6554 C   0  0  0  0  0  0  0  0  0  0  0  0
    1.4136    1.4359    1.3179 C   0  0  0  0  0  0  0  0  0  0  0  0
    1.2354    2.8090    1.5106 C   0  0  0  0  0  0  0  0  0  0  0  0
    0.0857    3.4304    1.0353 C   0  0  0  0  0  0  0  0  0  0  0  0
   -0.2149    4.7668    1.1483 O   0  0  0  0  0  0  0  0  0  0  0  0
    0.7418    5.5809    1.8202 C   0  0  0  0  0  0  0  0  0  0  0  0
   -0.8812    2.6635    0.3646 C   0  0  0  0  0  0  0  0  0  0  0  0
   -1.9845    3.3208   -0.1265 O   0  0  0  0  0  0  0  0  0  0  0  0
   -0.7194    1.2840    0.1730 C   0  0  0  0  0  0  0  0  0  0  0  0
   -1.7629    0.5051   -0.5548 C   0  0  0  0  0  0  0  0  0  0  0  0
   -1.4202   -0.2818   -1.4389 O   0  0  0  0  0  0  0  0  0  0  0  0
   -3.2200    0.7357   -0.1790 C   0  0  0  0  0  0  0  0  0  0  0  0
   -4.0951   -0.4867   -0.3840 C   0  0  0  0  0  0  0  0  0  0  0  0
   -4.9858   -0.4908   -1.4748 C   0  0  0  0  0  0  0  0  0  0  0  0
   -5.8083   -1.5883   -1.7334 C   0  0  0  0  0  0  0  0  0  0  0  0
   -5.7526   -2.7081   -0.9107 C   0  0  0  0  0  0  0  0  0  0  0  0
   -4.8735   -2.7300    0.1709 C   0  0  0  0  0  0  0  0  0  0  0  0
   -4.0467   -1.6266    0.4408 C   0  0  0  0  0  0  0  0  0  0  0  0
   -3.1555   -1.7530    1.6231 C   0  0  0  0  0  0  0  0  0  0  0  0
   -2.4770   -0.8387    2.0731 O   0  0  0  0  0  0  0  0  0  0  0  0
    4.8823   -3.7183   -1.0785 H   0  0  0  0  0  0  0  0  0  0  0  0
    6.1857   -3.8638    0.1122 H   0  0  0  0  0  0  0  0  0  0  0  0
    6.5796   -3.3732   -1.5470 H   0  0  0  0  0  0  0  0  0  0  0  0
    5.8701   -1.2831   -2.3199 H   0  0  0  0  0  0  0  0  0  0  0  0
    5.5062   -0.0478   -1.1139 H   0  0  0  0  0  0  0  0  0  0  0  0
    3.5190   -0.4907   -2.5409 H   0  0  0  0  0  0  0  0  0  0  0  0
    3.5440   -2.2023   -2.0703 H   0  0  0  0  0  0  0  0  0  0  0  0
    3.3527   -1.4044    0.2489 H   0  0  0  0  0  0  0  0  0  0  0  0
    1.1804   -0.6435   -1.6194 H   0  0  0  0  0  0  0  0  0  0  0  0
    1.4542   -2.2534   -0.9275 H   0  0  0  0  0  0  0  0  0  0  0  0
    1.2089   -1.2042    1.4096 H   0  0  0  0  0  0  0  0  0  0  0  0
   -0.2280   -1.3824    0.4637 H   0  0  0  0  0  0  0  0  0  0  0  0
    2.3269    0.9671    1.6841 H   0  0  0  0  0  0  0  0  0  0  0  0
    2.0181    3.3543    2.0276 H   0  0  0  0  0  0  0  0  0  0  0  0
    1.6958    5.5931    1.2823 H   0  0  0  0  0  0  0  0  0  0  0  0
    0.8743    5.2593    2.8591 H   0  0  0  0  0  0  0  0  0  0  0  0
    0.3559    6.6048    1.8361 H   0  0  0  0  0  0  0  0  0  0  0  0
   -1.8519    4.2573    0.1220 H   0  0  0  0  0  0  0  0  0  0  0  0
   -3.3169    1.0823    0.8548 H   0  0  0  0  0  0  0  0  0  0  0  0
   -3.5938    1.5489   -0.8147 H   0  0  0  0  0  0  0  0  0  0  0  0
   -5.0363    0.3688   -2.1436 H   0  0  0  0  0  0  0  0  0  0  0  0
   -6.4869   -1.5673   -2.5839 H   0  0  0  0  0  0  0  0  0  0  0  0
   -6.3903   -3.5633   -1.1161 H   0  0  0  0  0  0  0  0  0  0  0  0
   -4.8450   -3.6149    0.8006 H   0  0  0  0  0  0  0  0  0  0  0  0
   -3.1402   -2.7468    2.1077 H   0  0  0  0  0  0  0  0  0  0  0  0
  1  2  1  0
  2  3  1  0
  3  4  1  0
  4  5  1  0
  5  6  1  0
  6  7  1  0
  7  8  1  0
  8  9  2  0
  9 10  1  0
 10 11  2  0
 11 12  1  0
 12 13  1  0
 11 14  1  0
 14 15  1  0
 14 16  2  0
 16 17  1  0
 17 18  2  0
 17 19  1  0
 19 20  1  0
 20 21  2  0
 21 22  1  0
 22 23  2  0
 23 24  1  0
 24 25  2  0
 25 26  1  0
 26 27  2  0
 16  8  1  0
 25 20  1  0
  1 28  1  0
  1 29  1  0
  1 30  1  0
  3 31  1  0
  3 32  1  0
  4 33  1  0
  4 34  1  0
  5 35  1  0
  6 36  1  0
  6 37  1  0
  7 38  1  0
  7 39  1  0
  9 40  1  0
 10 41  1  0
 13 42  1  0
 13 43  1  0
 13 44  1  0
 15 45  1  0
 19 46  1  0
 19 47  1  0
 21 48  1  0
 22 49  1  0
 23 50  1  0
 24 51  1  0
 26 52  1  0
M  END
$$$$
