
     RDKit          3D

 48 51  0  0  0  0  0  0  0  0999 V2000
   -1.9578    1.4036   -3.4788 C   0  0  0  0  0  0  0  0  0  0  0  0
   -1.2400    1.5496   -2.1425 C   0  0  2  0  0  0  0  0  0  0  0  0
    0.2799    1.5674   -2.3496 C   0  0  0  0  0  0  0  0  0  0  0  0
    0.8109    1.1243   -0.9930 C   0  0  2  0  0  0  0  0  0  0  0  0
    2.1844    0.6510   -1.0691 N   0  0  0  0  0  0  0  0  0  0  0  0
    2.8740    0.4030    0.1039 C   0  0  0  0  0  0  0  0  0  0  0  0
    2.3907    0.6240    1.2047 O   0  0  0  0  0  0  0  0  0  0  0  0
    4.1287   -0.0934   -0.1689 N   0  0  0  0  0  0  0  0  0  0  0  0
    5.0894   -0.5501    0.7560 C   0  0  0  0  0  0  0  0  0  0  0  0
    6.3652   -0.8498    0.2574 C   0  0  0  0  0  0  0  0  0  0  0  0
    7.3724   -1.3171    1.1057 C   0  0  0  0  0  0  0  0  0  0  0  0
    7.1102   -1.4937    2.4618 C   0  0  0  0  0  0  0  0  0  0  0  0
    5.8419   -1.2038    2.9600 C   0  0  0  0  0  0  0  0  0  0  0  0
    5.5193   -1.4323    4.6363 Cl  0  0  0  0  0  0  0  0  0  0  0  0
    4.8321   -0.7360    2.1161 C   0  0  0  0  0  0  0  0  0  0  0  0
   -0.2090    0.0545   -0.5444 C   0  0  0  0  0  0  0  0  0  0  0  0
   -1.4397    0.3890   -1.2736 N   0  0  0  0  0  0  0  0  0  0  0  0
   -2.6170    0.2417   -0.5738 C   0  0  0  0  0  0  0  0  0  0  0  0
   -2.6989   -0.7167    0.3422 N   0  0  0  0  0  0  0  0  0  0  0  0
   -3.8807   -0.8654    1.0053 C   0  0  0  0  0  0  0  0  0  0  0  0
   -3.9069   -1.9673    2.0181 C   0  0  0  0  0  0  0  0  0  0  0  0
   -4.8705   -2.4566    2.5775 O   0  0  0  0  0  0  0  0  0  0  0  0
   -2.6675   -2.4308    2.2980 O   0  0  0  0  0  0  0  0  0  0  0  0
   -5.0183   -0.0970    0.8062 C   0  0  0  0  0  0  0  0  0  0  0  0
   -6.2083   -0.2155    1.4639 N   0  0  0  0  0  0  0  0  0  0  0  0
   -7.1926    0.6239    1.1260 C   0  0  0  0  0  0  0  0  0  0  0  0
   -7.1005    1.5750    0.1969 N   0  0  0  0  0  0  0  0  0  0  0  0
   -5.9009    1.6577   -0.4225 C   0  0  0  0  0  0  0  0  0  0  0  0
   -4.8051    0.8581   -0.1735 C   0  0  0  0  0  0  0  0  0  0  0  0
   -3.6529    1.0360   -0.8515 N   0  0  0  0  0  0  0  0  0  0  0  0
   -3.0450    1.4242   -3.3587 H   0  0  0  0  0  0  0  0  0  0  0  0
   -1.7025    0.4571   -3.9686 H   0  0  0  0  0  0  0  0  0  0  0  0
   -1.6841    2.2211   -4.1541 H   0  0  0  0  0  0  0  0  0  0  0  0
   -1.5441    2.4763   -1.6379 H   0  0  0  0  0  0  0  0  0  0  0  0
    0.5815    0.8580   -3.1317 H   0  0  0  0  0  0  0  0  0  0  0  0
    0.6481    2.5568   -2.6399 H   0  0  0  0  0  0  0  0  0  0  0  0
    0.7739    1.9703   -0.2935 H   0  0  0  0  0  0  0  0  0  0  0  0
    2.3871   -0.0013   -1.8132 H   0  0  0  0  0  0  0  0  0  0  0  0
    4.4392    0.0299   -1.1210 H   0  0  0  0  0  0  0  0  0  0  0  0
    6.5948   -0.7208   -0.7974 H   0  0  0  0  0  0  0  0  0  0  0  0
    8.3590   -1.5428    0.7087 H   0  0  0  0  0  0  0  0  0  0  0  0
    7.8922   -1.8573    3.1229 H   0  0  0  0  0  0  0  0  0  0  0  0
    3.8551   -0.5302    2.5414 H   0  0  0  0  0  0  0  0  0  0  0  0
    0.1157   -0.9532   -0.8289 H   0  0  0  0  0  0  0  0  0  0  0  0
   -0.3135    0.0900    0.5471 H   0  0  0  0  0  0  0  0  0  0  0  0
   -2.8169   -3.1377    2.9580 H   0  0  0  0  0  0  0  0  0  0  0  0
   -8.1369    0.5214    1.6494 H   0  0  0  0  0  0  0  0  0  0  0  0
   -5.8359    2.4381   -1.1773 H   0  0  0  0  0  0  0  0  0  0  0  0
  1  2  1  0
  2  3  1  0
  3  4  1  0
  4  5  1  0
  5  6  1  0
  6  7  2  0
  6  8  1  0
  8  9  1  0
  9 10  2  0
 10 11  1  0
 11 12  2  0
 12 13  1  0
 13 14  1  0
 13 15  2  0
  4 16  1  0
 16 17  1  0
 17 18  1  0
 18 19  2  0
 19 20  1  0
 20 21  1  0
 21 22  2  0
 21 23  1  0
 20 24  2  0
 24 25  1  0
 25 26  2  0
 26 27  1  0
 27 28  2  0
 28 29  1  0
 29 30  2  0
 17  2  1  0
 30 18  1  0
 15  9  1  0
 29 24  1  0
  1 31  1  0
  1 32  1  0
  1 33  1  0
  2 34  1  1
  3 35  1  0
  3 36  1  0
  4 37  1  1
  5 38  1  0
  8 39  1  0
 10 40  1  0
 11 41  1  0
 12 42  1  0
 15 43  1  0
 16 44  1  0
 16 45  1  0
 23 46  1  0
 26 47  1  0
 28 48  1  0
M  END
$$$$
