
     RDKit          3D

 38 40  0  0  0  0  0  0  0  0999 V2000
   -3.3054   -1.3348   -1.4200 C   0  0  0  0  0  0  0  0  0  0  0  0
   -2.5671   -0.0717   -0.9698 C   0  0  0  0  0  0  0  0  0  0  0  0
   -3.0166    1.1523   -1.7766 C   0  0  0  0  0  0  0  0  0  0  0  0
   -2.6361    0.1103    0.5412 C   0  0  0  0  0  0  0  0  0  0  0  0
   -1.5288   -0.2046    1.3555 C   0  0  0  0  0  0  0  0  0  0  0  0
   -0.2768   -0.7533    0.7887 C   0  0  0  0  0  0  0  0  0  0  0  0
   -0.2972   -1.8963    0.3573 O   0  0  0  0  0  0  0  0  0  0  0  0
    0.7648    0.1393    0.8313 N   0  0  0  0  0  0  0  0  0  0  0  0
    2.0460   -0.0650    0.3877 C   0  0  0  0  0  0  0  0  0  0  0  0
    2.9401    0.8900    0.4722 N   0  0  0  0  0  0  0  0  0  0  0  0
    4.1480    0.4408   -0.0373 C   0  0  0  0  0  0  0  0  0  0  0  0
    5.3421    1.1857   -0.1177 C   0  0  0  0  0  0  0  0  0  0  0  0
    6.4918    0.6000   -0.6584 C   0  0  0  0  0  0  0  0  0  0  0  0
    6.4649   -0.7133   -1.1174 C   0  0  0  0  0  0  0  0  0  0  0  0
    5.2932   -1.4735   -1.0488 C   0  0  0  0  0  0  0  0  0  0  0  0
    4.1452   -0.8751   -0.5043 C   0  0  0  0  0  0  0  0  0  0  0  0
    2.5719   -1.5347   -0.2836 S   0  0  0  0  0  0  0  0  0  0  0  0
   -1.5600   -0.0333    2.7398 C   0  0  0  0  0  0  0  0  0  0  0  0
   -2.7177    0.4631    3.2868 C   0  0  0  0  0  0  0  0  0  0  0  0
   -3.8032    0.7761    2.5553 N   0  0  0  0  0  0  0  0  0  0  0  0
   -3.7610    0.5840    1.2203 C   0  0  0  0  0  0  0  0  0  0  0  0
   -4.9471    0.9240    0.5831 N   0  0  0  0  0  0  0  0  0  0  0  0
   -3.1521   -1.5075   -2.4909 H   0  0  0  0  0  0  0  0  0  0  0  0
   -4.3837   -1.2687   -1.2484 H   0  0  0  0  0  0  0  0  0  0  0  0
   -2.9384   -2.2173   -0.8845 H   0  0  0  0  0  0  0  0  0  0  0  0
   -1.5182   -0.2072   -1.2578 H   0  0  0  0  0  0  0  0  0  0  0  0
   -2.7257    1.0372   -2.8272 H   0  0  0  0  0  0  0  0  0  0  0  0
   -4.1008    1.2929   -1.7655 H   0  0  0  0  0  0  0  0  0  0  0  0
   -2.5470    2.0673   -1.3997 H   0  0  0  0  0  0  0  0  0  0  0  0
    0.6147    1.0728    1.1894 H   0  0  0  0  0  0  0  0  0  0  0  0
    5.3599    2.2100    0.2410 H   0  0  0  0  0  0  0  0  0  0  0  0
    7.4114    1.1776   -0.7192 H   0  0  0  0  0  0  0  0  0  0  0  0
    7.3663   -1.1567   -1.5360 H   0  0  0  0  0  0  0  0  0  0  0  0
    5.2723   -2.4983   -1.4073 H   0  0  0  0  0  0  0  0  0  0  0  0
   -0.7166   -0.2935    3.3697 H   0  0  0  0  0  0  0  0  0  0  0  0
   -2.8160    0.6229    4.3566 H   0  0  0  0  0  0  0  0  0  0  0  0
   -5.3214    0.1508    0.0478 H   0  0  0  0  0  0  0  0  0  0  0  0
   -5.5956    1.2079    1.3143 H   0  0  0  0  0  0  0  0  0  0  0  0
  1  2  1  0
  2  3  1  0
  2  4  1  0
  4  5  2  0
  5  6  1  0
  6  7  2  0
  6  8  1  0
  8  9  1  0
  9 10  2  0
 10 11  1  0
 11 12  2  0
 12 13  1  0
 13 14  2  0
 14 15  1  0
 15 16  2  0
 16 17  1  0
  5 18  1  0
 18 19  2  0
 19 20  1  0
 20 21  2  0
 21 22  1  0
 21  4  1  0
 17  9  1  0
 16 11  1  0
  1 23  1  0
  1 24  1  0
  1 25  1  0
  2 26  1  0
  3 27  1  0
  3 28  1  0
  3 29  1  0
  8 30  1  0
 12 31  1  0
 13 32  1  0
 14 33  1  0
 15 34  1  0
 18 35  1  0
 19 36  1  0
 22 37  1  0
 22 38  1  0
M  END
$$$$
