
     RDKit          3D

 33 35  0  0  0  0  0  0  0  0999 V2000
   -3.4608   -1.5116   -0.6718 C   0  0  0  0  0  0  0  0  0  0  0  0
   -3.5500   -0.0645   -0.2795 C   0  0  0  0  0  0  0  0  0  0  0  0
   -2.4917    0.5917    0.3698 C   0  0  0  0  0  0  0  0  0  0  0  0
   -1.2417   -0.1300    0.7139 C   0  0  0  0  0  0  0  0  0  0  0  0
   -1.3285   -1.1375    1.4009 O   0  0  0  0  0  0  0  0  0  0  0  0
   -0.1139    0.4497    0.1851 N   0  0  0  0  0  0  0  0  0  0  0  0
    1.1811    0.0240    0.3354 C   0  0  0  0  0  0  0  0  0  0  0  0
    2.1643    0.6558   -0.2593 N   0  0  0  0  0  0  0  0  0  0  0  0
    3.3667    0.0411    0.0469 C   0  0  0  0  0  0  0  0  0  0  0  0
    4.6377    0.4385   -0.4153 C   0  0  0  0  0  0  0  0  0  0  0  0
    5.7751   -0.2796   -0.0220 C   0  0  0  0  0  0  0  0  0  0  0  0
    7.0681    0.1246   -0.4916 C   0  0  0  0  0  0  0  0  0  0  0  0
    8.1156    0.4503   -0.8697 N   0  0  0  0  0  0  0  0  0  0  0  0
    5.6529   -1.3841    0.8237 C   0  0  0  0  0  0  0  0  0  0  0  0
    4.4006   -1.7954    1.2942 C   0  0  0  0  0  0  0  0  0  0  0  0
    3.2705   -1.0661    0.8916 C   0  0  0  0  0  0  0  0  0  0  0  0
    1.6158   -1.3124    1.2910 S   0  0  0  0  0  0  0  0  0  0  0  0
   -2.5968    1.9344    0.7346 C   0  0  0  0  0  0  0  0  0  0  0  0
   -3.7722    2.5841    0.4312 C   0  0  0  0  0  0  0  0  0  0  0  0
   -4.8129    1.9887   -0.1839 N   0  0  0  0  0  0  0  0  0  0  0  0
   -4.7008    0.6868   -0.5096 C   0  0  0  0  0  0  0  0  0  0  0  0
   -5.8235    0.1465   -1.1300 N   0  0  0  0  0  0  0  0  0  0  0  0
   -2.4551   -1.7663   -1.0222 H   0  0  0  0  0  0  0  0  0  0  0  0
   -4.1346   -1.7528   -1.5001 H   0  0  0  0  0  0  0  0  0  0  0  0
   -3.7172   -2.1480    0.1808 H   0  0  0  0  0  0  0  0  0  0  0  0
   -0.1978    1.2495   -0.4274 H   0  0  0  0  0  0  0  0  0  0  0  0
    4.7152    1.3001   -1.0730 H   0  0  0  0  0  0  0  0  0  0  0  0
    6.5382   -1.9419    1.1288 H   0  0  0  0  0  0  0  0  0  0  0  0
    4.3061   -2.6549    1.9522 H   0  0  0  0  0  0  0  0  0  0  0  0
   -1.8023    2.4534    1.2589 H   0  0  0  0  0  0  0  0  0  0  0  0
   -3.9227    3.6290    0.6877 H   0  0  0  0  0  0  0  0  0  0  0  0
   -6.1542   -0.6806   -0.6463 H   0  0  0  0  0  0  0  0  0  0  0  0
   -6.5311    0.8776   -1.1434 H   0  0  0  0  0  0  0  0  0  0  0  0
  1  2  1  0
  2  3  2  0
  3  4  1  0
  4  5  2  0
  4  6  1  0
  6  7  1  0
  7  8  2  0
  8  9  1  0
  9 10  2  0
 10 11  1  0
 11 12  1  0
 12 13  3  0
 11 14  2  0
 14 15  1  0
 15 16  2  0
 16 17  1  0
  3 18  1  0
 18 19  2  0
 19 20  1  0
 20 21  2  0
 21 22  1  0
 21  2  1  0
 17  7  1  0
 16  9  1  0
  1 23  1  0
  1 24  1  0
  1 25  1  0
  6 26  1  0
 10 27  1  0
 14 28  1  0
 15 29  1  0
 18 30  1  0
 19 31  1  0
 22 32  1  0
 22 33  1  0
M  END
$$$$
