
     RDKit          3D

 58 61  0  0  0  0  0  0  0  0999 V2000
    8.8148   -0.3774    0.9360 C   0  0  0  0  0  0  0  0  0  0  0  0
    7.4311   -0.5558    0.6609 O   0  0  0  0  0  0  0  0  0  0  0  0
    6.9437   -0.0070   -0.4948 C   0  0  0  0  0  0  0  0  0  0  0  0
    7.6864    0.7407   -1.4113 C   0  0  0  0  0  0  0  0  0  0  0  0
    7.0783    1.2336   -2.5689 C   0  0  0  0  0  0  0  0  0  0  0  0
    5.7280    0.9905   -2.8065 C   0  0  0  0  0  0  0  0  0  0  0  0
    5.2186    1.4805   -3.9795 O   0  0  0  0  0  0  0  0  0  0  0  0
    4.9569    0.2791   -1.8799 C   0  0  0  0  0  0  0  0  0  0  0  0
    3.5192    0.0591   -2.1480 C   0  0  0  0  0  0  0  0  0  0  0  0
    3.1529   -0.0006   -3.3232 O   0  0  0  0  0  0  0  0  0  0  0  0
    2.4976   -0.0340   -1.0786 C   0  0  0  0  0  0  0  0  0  0  0  0
    2.5520    0.7721    0.0636 C   0  0  0  0  0  0  0  0  0  0  0  0
    1.5458    0.6769    1.0299 C   0  0  0  0  0  0  0  0  0  0  0  0
    0.4703   -0.2038    0.8508 C   0  0  0  0  0  0  0  0  0  0  0  0
   -0.5794   -0.2612    1.9063 C   0  0  0  0  0  0  0  0  0  0  0  0
   -0.3146    0.0645    3.0574 O   0  0  0  0  0  0  0  0  0  0  0  0
   -1.8382   -0.6512    1.4956 N   0  0  0  0  0  0  0  0  0  0  0  0
   -2.9817   -0.5854    2.4091 C   0  0  2  0  0  0  0  0  0  0  0  0
   -4.0976   -1.5270    1.9329 C   0  0  0  0  0  0  0  0  0  0  0  0
   -5.3436   -0.7750    1.4547 C   0  0  0  0  0  0  0  0  0  0  0  0
   -5.0083    0.4789    0.6101 C   0  0  0  0  0  0  0  0  0  0  0  0
   -4.5450    0.1050   -0.8124 C   0  0  0  0  0  0  0  0  0  0  0  0
   -5.8262   -0.2331   -1.5750 C   0  0  0  0  0  0  0  0  0  0  0  0
   -6.9540    0.5013   -0.8512 C   0  0  0  0  0  0  0  0  0  0  0  0
   -6.2862    1.2734    0.2841 C   0  0  0  0  0  0  0  0  0  0  0  0
   -4.0527    1.3750    1.2763 N   0  0  0  0  0  0  0  0  0  0  0  0
   -3.5023    0.8598    2.5379 C   0  0  0  0  0  0  0  0  0  0  0  0
    0.4165   -1.0068   -0.2958 C   0  0  0  0  0  0  0  0  0  0  0  0
    1.4224   -0.9126   -1.2624 C   0  0  0  0  0  0  0  0  0  0  0  0
    5.5823   -0.2365   -0.7436 C   0  0  0  0  0  0  0  0  0  0  0  0
    4.8870   -0.9897    0.1242 F   0  0  0  0  0  0  0  0  0  0  0  0
    9.4343   -0.8337    0.1568 H   0  0  0  0  0  0  0  0  0  0  0  0
    9.0572    0.6826    1.0647 H   0  0  0  0  0  0  0  0  0  0  0  0
    9.0367   -0.8866    1.8787 H   0  0  0  0  0  0  0  0  0  0  0  0
    8.7414    0.9487   -1.2638 H   0  0  0  0  0  0  0  0  0  0  0  0
    7.6602    1.7999   -3.2928 H   0  0  0  0  0  0  0  0  0  0  0  0
    4.3404    1.0596   -4.1258 H   0  0  0  0  0  0  0  0  0  0  0  0
    3.3609    1.4813    0.2179 H   0  0  0  0  0  0  0  0  0  0  0  0
    1.5979    1.2977    1.9233 H   0  0  0  0  0  0  0  0  0  0  0  0
   -2.0428   -0.6199    0.5075 H   0  0  0  0  0  0  0  0  0  0  0  0
   -2.6289   -0.9211    3.3921 H   0  0  0  0  0  0  0  0  0  0  0  0
   -3.7387   -2.1943    1.1396 H   0  0  0  0  0  0  0  0  0  0  0  0
   -4.3950   -2.1815    2.7621 H   0  0  0  0  0  0  0  0  0  0  0  0
   -5.9261   -0.4727    2.3363 H   0  0  0  0  0  0  0  0  0  0  0  0
   -5.9855   -1.4757    0.9081 H   0  0  0  0  0  0  0  0  0  0  0  0
   -3.8311   -0.7231   -0.8400 H   0  0  0  0  0  0  0  0  0  0  0  0
   -4.0655    0.9616   -1.3051 H   0  0  0  0  0  0  0  0  0  0  0  0
   -6.0114   -1.3131   -1.5621 H   0  0  0  0  0  0  0  0  0  0  0  0
   -5.7524    0.0718   -2.6240 H   0  0  0  0  0  0  0  0  0  0  0  0
   -7.4994    1.1723   -1.5226 H   0  0  0  0  0  0  0  0  0  0  0  0
   -7.6766   -0.2205   -0.4533 H   0  0  0  0  0  0  0  0  0  0  0  0
   -6.9522    1.3921    1.1456 H   0  0  0  0  0  0  0  0  0  0  0  0
   -6.0379    2.2813   -0.0762 H   0  0  0  0  0  0  0  0  0  0  0  0
   -3.2801    1.6091    0.6548 H   0  0  0  0  0  0  0  0  0  0  0  0
   -2.6966    1.5301    2.8589 H   0  0  0  0  0  0  0  0  0  0  0  0
   -4.2701    0.9161    3.3193 H   0  0  0  0  0  0  0  0  0  0  0  0
   -0.3842   -1.7262   -0.4432 H   0  0  0  0  0  0  0  0  0  0  0  0
    1.3716   -1.5329   -2.1556 H   0  0  0  0  0  0  0  0  0  0  0  0
  1  2  1  0
  2  3  1  0
  3  4  2  0
  4  5  1  0
  5  6  2  0
  6  7  1  0
  6  8  1  0
  8  9  1  0
  9 10  2  0
  9 11  1  0
 11 12  2  0
 12 13  1  0
 13 14  2  0
 14 15  1  0
 15 16  2  0
 15 17  1  0
 17 18  1  0
 18 19  1  0
 19 20  1  0
 20 21  1  0
 21 22  1  0
 22 23  1  0
 23 24  1  0
 24 25  1  0
 21 26  1  0
 26 27  1  0
 14 28  1  0
 28 29  2  0
  8 30  2  0
 30 31  1  0
 30  3  1  0
 29 11  1  0
 27 18  1  0
 25 21  1  0
  1 32  1  0
  1 33  1  0
  1 34  1  0
  4 35  1  0
  5 36  1  0
  7 37  1  0
 12 38  1  0
 13 39  1  0
 17 40  1  0
 18 41  1  1
 19 42  1  0
 19 43  1  0
 20 44  1  0
 20 45  1  0
 22 46  1  0
 22 47  1  0
 23 48  1  0
 23 49  1  0
 24 50  1  0
 24 51  1  0
 25 52  1  0
 25 53  1  0
 26 54  1  0
 27 55  1  0
 27 56  1  0
 28 57  1  0
 29 58  1  0
M  END
$$$$
