
     RDKit          3D

 57 60  0  0  0  0  0  0  0  0999 V2000
    8.8402    3.1591   -0.2959 C   0  0  0  0  0  0  0  0  0  0  0  0
    7.5275    2.6018   -0.3318 O   0  0  0  0  0  0  0  0  0  0  0  0
    7.5107    1.2472   -0.4960 C   0  0  0  0  0  0  0  0  0  0  0  0
    8.5190    0.5592   -0.6136 O   0  0  0  0  0  0  0  0  0  0  0  0
    6.2274    0.7450   -0.5233 N   0  0  0  0  0  0  0  0  0  0  0  0
    5.0413    1.5718   -0.3055 C   0  0  0  0  0  0  0  0  0  0  0  0
    3.8010    0.7532    0.0861 C   0  0  0  0  0  0  0  0  0  0  0  0
    3.5379   -0.3619   -0.8379 N   0  0  0  0  0  0  0  0  0  0  0  0
    2.2800   -0.8230   -1.2034 C   0  0  0  0  0  0  0  0  0  0  0  0
    2.0993   -1.5877   -2.1524 O   0  0  0  0  0  0  0  0  0  0  0  0
    1.0841   -0.3886   -0.4599 C   0  0  0  0  0  0  0  0  0  0  0  0
   -0.0124    0.0974   -1.1807 C   0  0  0  0  0  0  0  0  0  0  0  0
   -1.1885    0.4448   -0.5112 C   0  0  0  0  0  0  0  0  0  0  0  0
   -1.2971    0.3053    0.8866 C   0  0  0  0  0  0  0  0  0  0  0  0
   -2.5608    0.6344    1.5701 C   0  0  0  0  0  0  0  0  0  0  0  0
   -3.6241   -0.0799    1.1083 N   0  0  0  0  0  0  0  0  0  0  0  0
   -4.8304    0.1203    1.6809 C   0  0  0  0  0  0  0  0  0  0  0  0
   -5.9044   -0.6570    1.2452 N   0  0  0  0  0  0  0  0  0  0  0  0
   -5.8427   -1.1706    0.0621 C   0  0  0  0  0  0  0  0  0  0  0  0
   -6.9039   -2.0117   -0.4187 C   0  0  0  0  0  0  0  0  0  0  0  0
   -7.9693   -2.5545    0.2694 C   0  0  0  0  0  0  0  0  0  0  0  0
   -8.7558   -3.3211   -0.5515 N   0  0  0  0  0  0  0  0  0  0  0  0
   -8.1938   -3.2497   -1.7356 C   0  0  0  0  0  0  0  0  0  0  0  0
   -7.0714   -2.4798   -1.7020 N   0  0  0  0  0  0  0  0  0  0  0  0
   -6.2612   -2.1579   -2.8504 C   0  0  0  0  0  0  0  0  0  0  0  0
   -5.0267    1.0311    2.7053 C   0  0  0  0  0  0  0  0  0  0  0  0
   -3.9433    1.7798    3.1618 C   0  0  0  0  0  0  0  0  0  0  0  0
   -2.6839    1.5831    2.5903 C   0  0  0  0  0  0  0  0  0  0  0  0
   -1.5722    2.3639    3.0426 C   0  0  0  0  0  0  0  0  0  0  0  0
   -0.6688    2.9935    3.4110 N   0  0  0  0  0  0  0  0  0  0  0  0
   -0.1919   -0.2067    1.5888 C   0  0  0  0  0  0  0  0  0  0  0  0
    0.9797   -0.5550    0.9171 C   0  0  0  0  0  0  0  0  0  0  0  0
    1.9904   -1.0735    1.6298 F   0  0  0  0  0  0  0  0  0  0  0  0
    4.6957   -0.9248   -1.5352 C   0  0  0  0  0  0  0  0  0  0  0  0
    6.0171   -0.6739   -0.8021 C   0  0  0  0  0  0  0  0  0  0  0  0
    9.3881    2.9357   -1.2205 H   0  0  0  0  0  0  0  0  0  0  0  0
    9.3875    2.7783    0.5711 H   0  0  0  0  0  0  0  0  0  0  0  0
    8.7452    4.2446   -0.2040 H   0  0  0  0  0  0  0  0  0  0  0  0
    4.8534    2.1104   -1.2415 H   0  0  0  0  0  0  0  0  0  0  0  0
    5.2509    2.3164    0.4709 H   0  0  0  0  0  0  0  0  0  0  0  0
    3.9610    0.3072    1.0741 H   0  0  0  0  0  0  0  0  0  0  0  0
    2.9331    1.4124    0.1414 H   0  0  0  0  0  0  0  0  0  0  0  0
    0.0412    0.1872   -2.2651 H   0  0  0  0  0  0  0  0  0  0  0  0
   -2.0393    0.8055   -1.0881 H   0  0  0  0  0  0  0  0  0  0  0  0
   -4.9967   -0.9956   -0.6235 H   0  0  0  0  0  0  0  0  0  0  0  0
   -8.2034   -2.4286    1.3176 H   0  0  0  0  0  0  0  0  0  0  0  0
   -8.5689   -3.7212   -2.6353 H   0  0  0  0  0  0  0  0  0  0  0  0
   -6.6951   -2.6126   -3.7478 H   0  0  0  0  0  0  0  0  0  0  0  0
   -5.2570   -2.5510   -2.6893 H   0  0  0  0  0  0  0  0  0  0  0  0
   -6.2390   -1.0703   -2.9624 H   0  0  0  0  0  0  0  0  0  0  0  0
   -6.0141    1.1511    3.1398 H   0  0  0  0  0  0  0  0  0  0  0  0
   -4.0918    2.5073    3.9606 H   0  0  0  0  0  0  0  0  0  0  0  0
   -0.2367   -0.3749    2.6646 H   0  0  0  0  0  0  0  0  0  0  0  0
    4.5420   -1.9987   -1.6792 H   0  0  0  0  0  0  0  0  0  0  0  0
    4.7236   -0.4567   -2.5263 H   0  0  0  0  0  0  0  0  0  0  0  0
    6.0154   -1.1872    0.1641 H   0  0  0  0  0  0  0  0  0  0  0  0
    6.8516   -1.0728   -1.3882 H   0  0  0  0  0  0  0  0  0  0  0  0
  1  2  1  0
  2  3  1  0
  3  4  2  0
  3  5  1  0
  5  6  1  0
  6  7  1  0
  7  8  1  0
  8  9  1  0
  9 10  2  0
  9 11  1  0
 11 12  2  0
 12 13  1  0
 13 14  2  0
 14 15  1  0
 15 16  2  0
 16 17  1  0
 17 18  1  0
 18 19  2  3
 19 20  1  0
 20 21  2  0
 21 22  1  0
 22 23  2  0
 23 24  1  0
 24 25  1  0
 17 26  2  0
 26 27  1  0
 27 28  2  0
 28 29  1  0
 29 30  3  0
 14 31  1  0
 31 32  2  0
 32 33  1  0
  8 34  1  0
 34 35  1  0
 35  5  1  0
 32 11  1  0
 28 15  1  0
 24 20  1  0
  1 36  1  0
  1 37  1  0
  1 38  1  0
  6 39  1  0
  6 40  1  0
  7 41  1  0
  7 42  1  0
 12 43  1  0
 13 44  1  0
 19 45  1  0
 21 46  1  0
 23 47  1  0
 25 48  1  0
 25 49  1  0
 25 50  1  0
 26 51  1  0
 27 52  1  0
 31 53  1  0
 34 54  1  0
 34 55  1  0
 35 56  1  0
 35 57  1  0
M  END
$$$$
