
     RDKit          3D

 46 47  0  0  0  0  0  0  0  0999 V2000
    5.1303    2.1509   -2.0412 C   0  0  0  0  0  0  0  0  0  0  0  0
    5.0570    0.7542   -1.7859 O   0  0  0  0  0  0  0  0  0  0  0  0
    4.1398    0.4260   -0.7401 C   0  0  0  0  0  0  0  0  0  0  0  0
    4.8296    0.4969    0.6202 C   0  0  0  0  0  0  0  0  0  0  0  0
    3.8944    0.2866    1.8139 C   0  0  0  0  0  0  0  0  0  0  0  0
    3.3582   -1.1373    1.9663 C   0  0  0  0  0  0  0  0  0  0  0  0
    2.3379   -1.4763    1.0028 N   0  0  0  0  0  0  0  0  0  0  0  0
    1.0361   -1.0244    1.0849 C   0  0  0  0  0  0  0  0  0  0  0  0
    0.6311   -0.2744    1.9675 O   0  0  0  0  0  0  0  0  0  0  0  0
    0.1317   -1.5395    0.0041 C   0  0  0  0  0  0  0  0  0  0  0  0
    0.7048   -2.4787   -0.8206 N   0  0  0  0  0  0  0  0  0  0  0  0
   -0.1113   -2.9682   -1.7739 C   0  0  0  0  0  0  0  0  0  0  0  0
   -1.4220   -2.5519   -1.9036 C   0  0  0  0  0  0  0  0  0  0  0  0
   -1.9787   -1.6213   -1.0920 N   0  0  0  0  0  0  0  0  0  0  0  0
   -1.2019   -1.0928   -0.1100 C   0  0  0  0  0  0  0  0  0  0  0  0
   -1.7007   -0.0710    0.7272 N   0  0  0  0  0  0  0  0  0  0  0  0
   -2.9500    0.5705    0.8212 C   0  0  0  0  0  0  0  0  0  0  0  0
   -3.1714    1.4266    1.9135 C   0  0  0  0  0  0  0  0  0  0  0  0
   -4.3734    2.1200    2.0597 C   0  0  0  0  0  0  0  0  0  0  0  0
   -5.3731    1.9759    1.1032 C   0  0  0  0  0  0  0  0  0  0  0  0
   -5.1752    1.1483   -0.0018 C   0  0  0  0  0  0  0  0  0  0  0  0
   -6.2305    1.1027   -0.8736 O   0  0  0  0  0  0  0  0  0  0  0  0
   -6.0926    0.2470   -2.0010 C   0  0  0  0  0  0  0  0  0  0  0  0
   -3.9640    0.4591   -0.1394 C   0  0  0  0  0  0  0  0  0  0  0  0
    5.4772    2.6962   -1.1595 H   0  0  0  0  0  0  0  0  0  0  0  0
    4.1555    2.5322   -2.3603 H   0  0  0  0  0  0  0  0  0  0  0  0
    5.8466    2.3129   -2.8512 H   0  0  0  0  0  0  0  0  0  0  0  0
    3.2540    1.0702   -0.7844 H   0  0  0  0  0  0  0  0  0  0  0  0
    3.8162   -0.5985   -0.9401 H   0  0  0  0  0  0  0  0  0  0  0  0
    5.3085    1.4765    0.7334 H   0  0  0  0  0  0  0  0  0  0  0  0
    5.6510   -0.2300    0.6494 H   0  0  0  0  0  0  0  0  0  0  0  0
    3.0711    1.0090    1.7681 H   0  0  0  0  0  0  0  0  0  0  0  0
    4.4658    0.5224    2.7208 H   0  0  0  0  0  0  0  0  0  0  0  0
    4.1651   -1.8706    1.8683 H   0  0  0  0  0  0  0  0  0  0  0  0
    2.9206   -1.2504    2.9648 H   0  0  0  0  0  0  0  0  0  0  0  0
    2.5333   -2.1500    0.2645 H   0  0  0  0  0  0  0  0  0  0  0  0
    0.3153   -3.7118   -2.4380 H   0  0  0  0  0  0  0  0  0  0  0  0
   -2.0709   -2.9544   -2.6739 H   0  0  0  0  0  0  0  0  0  0  0  0
   -1.1262    0.0361    1.5682 H   0  0  0  0  0  0  0  0  0  0  0  0
   -2.3997    1.5603    2.6687 H   0  0  0  0  0  0  0  0  0  0  0  0
   -4.5269    2.7720    2.9149 H   0  0  0  0  0  0  0  0  0  0  0  0
   -6.3105    2.5148    1.2133 H   0  0  0  0  0  0  0  0  0  0  0  0
   -5.2741    0.5772   -2.6492 H   0  0  0  0  0  0  0  0  0  0  0  0
   -5.9603   -0.7957   -1.6935 H   0  0  0  0  0  0  0  0  0  0  0  0
   -7.0190    0.3069   -2.5804 H   0  0  0  0  0  0  0  0  0  0  0  0
   -3.7984   -0.1673   -1.0053 H   0  0  0  0  0  0  0  0  0  0  0  0
  1  2  1  0
  2  3  1  0
  3  4  1  0
  4  5  1  0
  5  6  1  0
  6  7  1  0
  7  8  1  0
  8  9  2  0
  8 10  1  0
 10 11  2  0
 11 12  1  0
 12 13  2  0
 13 14  1  0
 14 15  2  0
 15 16  1  0
 16 17  1  0
 17 18  2  0
 18 19  1  0
 19 20  2  0
 20 21  1  0
 21 22  1  0
 22 23  1  0
 21 24  2  0
 15 10  1  0
 24 17  1  0
  1 25  1  0
  1 26  1  0
  1 27  1  0
  3 28  1  0
  3 29  1  0
  4 30  1  0
  4 31  1  0
  5 32  1  0
  5 33  1  0
  6 34  1  0
  6 35  1  0
  7 36  1  0
 12 37  1  0
 13 38  1  0
 16 39  1  0
 18 40  1  0
 19 41  1  0
 20 42  1  0
 23 43  1  0
 23 44  1  0
 23 45  1  0
 24 46  1  0
M  END
$$$$
