
     RDKit          3D

 36 39  0  0  0  0  0  0  0  0999 V2000
   -2.7981    1.4500    2.4178 O   0  0  0  0  0  0  0  0  0  0  0  0
   -2.2499    0.8988    1.4598 C   0  0  0  0  0  0  0  0  0  0  0  0
   -2.4274   -0.4441    1.3164 N   0  0  0  0  0  0  0  0  0  0  0  0
   -1.8861   -1.3708    0.4221 C   0  0  0  0  0  0  0  0  0  0  0  0
   -2.5667   -2.6037    0.3649 C   0  0  0  0  0  0  0  0  0  0  0  0
   -2.1095   -3.6504   -0.4322 C   0  0  0  0  0  0  0  0  0  0  0  0
   -0.9500   -3.4848   -1.1704 C   0  0  0  0  0  0  0  0  0  0  0  0
   -0.2559   -2.2753   -1.1002 C   0  0  0  0  0  0  0  0  0  0  0  0
   -0.7021   -1.1907   -0.3065 C   0  0  0  0  0  0  0  0  0  0  0  0
    0.1039   -0.0078   -0.2489 N   0  0  0  0  0  0  0  0  0  0  0  0
    1.5093   -0.1432    0.0243 C   0  0  0  0  0  0  0  0  0  0  0  0
    1.9496   -0.1889    1.3560 C   0  0  0  0  0  0  0  0  0  0  0  0
    3.3082   -0.3181    1.6489 C   0  0  0  0  0  0  0  0  0  0  0  0
    4.2391   -0.4032    0.6145 C   0  0  0  0  0  0  0  0  0  0  0  0
    3.8145   -0.3595   -0.7129 C   0  0  0  0  0  0  0  0  0  0  0  0
    2.4559   -0.2301   -1.0076 C   0  0  0  0  0  0  0  0  0  0  0  0
   -0.4546    1.3069   -0.2988 C   0  0  0  0  0  0  0  0  0  0  0  0
    0.1495    2.2636   -1.1520 C   0  0  0  0  0  0  0  0  0  0  0  0
   -0.3228    3.5737   -1.2611 C   0  0  0  0  0  0  0  0  0  0  0  0
   -1.4143    3.9720   -0.5085 C   0  0  0  0  0  0  0  0  0  0  0  0
   -2.0197    3.0559    0.3476 C   0  0  0  0  0  0  0  0  0  0  0  0
   -1.5530    1.7254    0.4563 C   0  0  0  0  0  0  0  0  0  0  0  0
   -3.1182   -0.7865    1.9730 H   0  0  0  0  0  0  0  0  0  0  0  0
   -3.4755   -2.7585    0.9429 H   0  0  0  0  0  0  0  0  0  0  0  0
   -2.6551   -4.5894   -0.4694 H   0  0  0  0  0  0  0  0  0  0  0  0
   -0.5758   -4.2916   -1.7949 H   0  0  0  0  0  0  0  0  0  0  0  0
    0.6519   -2.1829   -1.6899 H   0  0  0  0  0  0  0  0  0  0  0  0
    1.2281   -0.1230    2.1669 H   0  0  0  0  0  0  0  0  0  0  0  0
    3.6382   -0.3517    2.6839 H   0  0  0  0  0  0  0  0  0  0  0  0
    5.2970   -0.5035    0.8440 H   0  0  0  0  0  0  0  0  0  0  0  0
    4.5414   -0.4261   -1.5181 H   0  0  0  0  0  0  0  0  0  0  0  0
    2.1349   -0.1979   -2.0450 H   0  0  0  0  0  0  0  0  0  0  0  0
    1.0025    1.9853   -1.7653 H   0  0  0  0  0  0  0  0  0  0  0  0
    0.1671    4.2750   -1.9315 H   0  0  0  0  0  0  0  0  0  0  0  0
   -1.7899    4.9894   -0.5755 H   0  0  0  0  0  0  0  0  0  0  0  0
   -2.8664    3.3855    0.9493 H   0  0  0  0  0  0  0  0  0  0  0  0
  1  2  2  0
  2  3  1  0
  3  4  1  0
  4  5  2  0
  5  6  1  0
  6  7  2  0
  7  8  1  0
  8  9  2  0
  9 10  1  0
 10 11  1  0
 11 12  2  0
 12 13  1  0
 13 14  2  0
 14 15  1  0
 15 16  2  0
 10 17  1  0
 17 18  2  0
 18 19  1  0
 19 20  2  0
 20 21  1  0
 21 22  2  0
 22  2  1  0
  9  4  1  0
 16 11  1  0
 22 17  1  0
  3 23  1  0
  5 24  1  0
  6 25  1  0
  7 26  1  0
  8 27  1  0
 12 28  1  0
 13 29  1  0
 14 30  1  0
 15 31  1  0
 16 32  1  0
 18 33  1  0
 19 34  1  0
 20 35  1  0
 21 36  1  0
M  END
$$$$
