
     RDKit          3D

 49 52  0  0  0  0  0  0  0  0999 V2000
   -0.4691    1.3904    1.4592 O   0  0  0  0  0  0  0  0  0  0  0  0
   -0.0499    0.3597    0.9452 C   0  0  0  0  0  0  0  0  0  0  0  0
   -0.8662   -0.6731    0.5250 N   0  0  0  0  0  0  0  0  0  0  0  0
   -2.3110   -0.5242    0.5413 C   0  0  0  0  0  0  0  0  0  0  0  0
   -2.9990   -1.8778    0.6725 C   0  0  0  0  0  0  0  0  0  0  0  0
   -4.5181   -1.7463    0.7447 C   0  0  0  0  0  0  0  0  0  0  0  0
   -5.0506   -1.3734   -0.5626 N   0  0  0  0  0  0  0  0  0  0  0  0
   -5.8533   -0.2429   -0.7232 C   0  0  0  0  0  0  0  0  0  0  0  0
   -5.7328    0.9121    0.0616 C   0  0  0  0  0  0  0  0  0  0  0  0
   -6.5165    2.0439   -0.1895 C   0  0  0  0  0  0  0  0  0  0  0  0
   -7.4100    2.0381   -1.2499 C   0  0  0  0  0  0  0  0  0  0  0  0
   -8.1581    3.1219   -1.4932 F   0  0  0  0  0  0  0  0  0  0  0  0
   -7.5239    0.9276   -2.0715 C   0  0  0  0  0  0  0  0  0  0  0  0
   -6.7372   -0.1991   -1.8152 C   0  0  0  0  0  0  0  0  0  0  0  0
    1.4109    0.1851    0.7073 C   0  0  0  0  0  0  0  0  0  0  0  0
    2.0058   -1.0733    0.6221 C   0  0  0  0  0  0  0  0  0  0  0  0
    3.3826   -1.1838    0.3905 C   0  0  0  0  0  0  0  0  0  0  0  0
    4.2062   -0.0496    0.2402 C   0  0  0  0  0  0  0  0  0  0  0  0
    3.5988    1.2196    0.3813 C   0  0  0  0  0  0  0  0  0  0  0  0
    2.2111    1.3256    0.5989 C   0  0  0  0  0  0  0  0  0  0  0  0
    4.4108    2.4834    0.2519 C   0  0  0  0  0  0  0  0  0  0  0  0
    6.0008    2.3752    1.1142 S   0  0  0  0  0  0  0  0  0  0  0  0
    6.5683    0.8475    0.3747 C   0  0  0  0  0  0  0  0  0  0  0  0
    7.9507    0.7005    0.1847 C   0  0  0  0  0  0  0  0  0  0  0  0
    8.4625   -0.4436   -0.4208 C   0  0  0  0  0  0  0  0  0  0  0  0
    7.5952   -1.4434   -0.8422 C   0  0  0  0  0  0  0  0  0  0  0  0
    6.2177   -1.3072   -0.6412 C   0  0  0  0  0  0  0  0  0  0  0  0
    5.6685   -0.1717   -0.0108 C   0  0  0  0  0  0  0  0  0  0  0  0
   -0.4852   -1.3180   -0.1540 H   0  0  0  0  0  0  0  0  0  0  0  0
   -2.5890   -0.0249   -0.3929 H   0  0  0  0  0  0  0  0  0  0  0  0
   -2.5984    0.1301    1.3717 H   0  0  0  0  0  0  0  0  0  0  0  0
   -2.6437   -2.3724    1.5854 H   0  0  0  0  0  0  0  0  0  0  0  0
   -2.7119   -2.5258   -0.1654 H   0  0  0  0  0  0  0  0  0  0  0  0
   -4.8120   -1.0715    1.5551 H   0  0  0  0  0  0  0  0  0  0  0  0
   -4.9380   -2.7252    1.0069 H   0  0  0  0  0  0  0  0  0  0  0  0
   -5.4118   -2.1768   -1.0725 H   0  0  0  0  0  0  0  0  0  0  0  0
   -5.0144    0.9685    0.8735 H   0  0  0  0  0  0  0  0  0  0  0  0
   -6.4199    2.9305    0.4288 H   0  0  0  0  0  0  0  0  0  0  0  0
   -8.2124    0.9448   -2.9095 H   0  0  0  0  0  0  0  0  0  0  0  0
   -6.8236   -1.0534   -2.4822 H   0  0  0  0  0  0  0  0  0  0  0  0
    1.4255   -1.9805    0.7642 H   0  0  0  0  0  0  0  0  0  0  0  0
    3.8081   -2.1846    0.3597 H   0  0  0  0  0  0  0  0  0  0  0  0
    1.7481    2.3081    0.6894 H   0  0  0  0  0  0  0  0  0  0  0  0
    4.5800    2.6991   -0.8093 H   0  0  0  0  0  0  0  0  0  0  0  0
    3.8713    3.3355    0.6788 H   0  0  0  0  0  0  0  0  0  0  0  0
    8.6356    1.4849    0.4994 H   0  0  0  0  0  0  0  0  0  0  0  0
    9.5338   -0.5479   -0.5706 H   0  0  0  0  0  0  0  0  0  0  0  0
    7.9871   -2.3334   -1.3286 H   0  0  0  0  0  0  0  0  0  0  0  0
    5.5768   -2.1083   -1.0014 H   0  0  0  0  0  0  0  0  0  0  0  0
  1  2  2  0
  2  3  1  0
  3  4  1  0
  4  5  1  0
  5  6  1  0
  6  7  1  0
  7  8  1  0
  8  9  2  0
  9 10  1  0
 10 11  2  0
 11 12  1  0
 11 13  1  0
 13 14  2  0
  2 15  1  0
 15 16  2  0
 16 17  1  0
 17 18  2  0
 18 19  1  0
 19 20  2  0
 19 21  1  0
 21 22  1  0
 22 23  1  0
 23 24  2  0
 24 25  1  0
 25 26  2  0
 26 27  1  0
 27 28  2  0
 14  8  1  0
 20 15  1  0
 28 23  1  0
 28 18  1  0
  3 29  1  0
  4 30  1  0
  4 31  1  0
  5 32  1  0
  5 33  1  0
  6 34  1  0
  6 35  1  0
  7 36  1  0
  9 37  1  0
 10 38  1  0
 13 39  1  0
 14 40  1  0
 16 41  1  0
 17 42  1  0
 20 43  1  0
 21 44  1  0
 21 45  1  0
 24 46  1  0
 25 47  1  0
 26 48  1  0
 27 49  1  0
M  END
$$$$
