
     RDKit          3D

 53 55  0  0  0  0  0  0  0  0999 V2000
    5.0872   -0.8730   -2.7588 C   0  0  0  0  0  0  0  0  0  0  0  0
    4.7256   -0.2438   -1.4437 C   0  0  0  0  0  0  0  0  0  0  0  0
    3.4205   -0.3814   -1.0870 N   0  0  0  0  0  0  0  0  0  0  0  0
    2.9873    0.1579    0.0766 C   0  0  0  0  0  0  0  0  0  0  0  0
    1.5480   -0.0200    0.3700 C   0  0  0  0  0  0  0  0  0  0  0  0
    1.0455   -0.0718    1.6812 C   0  0  0  0  0  0  0  0  0  0  0  0
   -0.3231   -0.2376    1.9297 C   0  0  0  0  0  0  0  0  0  0  0  0
   -1.2306   -0.3606    0.8784 C   0  0  0  0  0  0  0  0  0  0  0  0
   -2.5337   -0.5154    1.2607 O   0  0  0  0  0  0  0  0  0  0  0  0
   -3.5064   -0.6280    0.2168 C   0  0  0  0  0  0  0  0  0  0  0  0
   -4.8883   -0.7920    0.8720 C   0  0  0  0  0  0  0  0  0  0  0  0
   -5.9913   -0.9854   -0.0855 N   0  0  0  0  0  0  0  0  0  0  0  0
   -7.2587   -1.3165    0.6045 C   0  0  0  0  0  0  0  0  0  0  0  0
   -8.2000   -0.1130    0.7685 C   0  0  0  0  0  0  0  0  0  0  0  0
   -8.5797    0.4812   -0.4804 O   0  0  0  0  0  0  0  0  0  0  0  0
   -7.6051    0.2869   -1.5144 C   0  0  0  0  0  0  0  0  0  0  0  0
   -6.1733    0.1919   -0.9651 C   0  0  0  0  0  0  0  0  0  0  0  0
   -0.7557   -0.3221   -0.4288 C   0  0  0  0  0  0  0  0  0  0  0  0
    0.6146   -0.1559   -0.6745 C   0  0  0  0  0  0  0  0  0  0  0  0
    3.8597    0.8294    0.9192 C   0  0  0  0  0  0  0  0  0  0  0  0
    5.2070    0.9449    0.5695 C   0  0  0  0  0  0  0  0  0  0  0  0
    6.0799    1.6056    1.4556 N   0  0  0  0  0  0  0  0  0  0  0  0
    6.5137    0.9054    2.4469 C   0  0  0  0  0  0  0  0  0  0  0  0
    7.3694    1.3968    3.3787 N   0  0  0  0  0  0  0  0  0  0  0  0
    5.6597    0.4383   -0.6578 C   0  0  0  0  0  0  0  0  0  0  0  0
    7.1038    0.5797   -1.0546 C   0  0  0  0  0  0  0  0  0  0  0  0
    7.2290    1.0539   -2.3911 O   0  0  0  0  0  0  0  0  0  0  0  0
    5.2187   -0.1049   -3.5263 H   0  0  0  0  0  0  0  0  0  0  0  0
    5.9991   -1.4713   -2.6709 H   0  0  0  0  0  0  0  0  0  0  0  0
    4.2898   -1.5451   -3.0947 H   0  0  0  0  0  0  0  0  0  0  0  0
    1.7123   -0.0017    2.5367 H   0  0  0  0  0  0  0  0  0  0  0  0
   -0.6810   -0.2760    2.9557 H   0  0  0  0  0  0  0  0  0  0  0  0
   -3.4878    0.2790   -0.3983 H   0  0  0  0  0  0  0  0  0  0  0  0
   -3.2927   -1.5085   -0.4015 H   0  0  0  0  0  0  0  0  0  0  0  0
   -4.8257   -1.6671    1.5329 H   0  0  0  0  0  0  0  0  0  0  0  0
   -5.0842    0.0631    1.5329 H   0  0  0  0  0  0  0  0  0  0  0  0
   -7.7674   -2.0691   -0.0114 H   0  0  0  0  0  0  0  0  0  0  0  0
   -7.0801   -1.7903    1.5770 H   0  0  0  0  0  0  0  0  0  0  0  0
   -7.7335    0.6627    1.3869 H   0  0  0  0  0  0  0  0  0  0  0  0
   -9.1199   -0.4222    1.2752 H   0  0  0  0  0  0  0  0  0  0  0  0
   -7.8716   -0.6167   -2.0753 H   0  0  0  0  0  0  0  0  0  0  0  0
   -7.6878    1.1330   -2.2043 H   0  0  0  0  0  0  0  0  0  0  0  0
   -5.4692    0.1275   -1.8016 H   0  0  0  0  0  0  0  0  0  0  0  0
   -5.9625    1.1170   -0.4124 H   0  0  0  0  0  0  0  0  0  0  0  0
   -1.4142   -0.4207   -1.2850 H   0  0  0  0  0  0  0  0  0  0  0  0
    0.9592   -0.1307   -1.7083 H   0  0  0  0  0  0  0  0  0  0  0  0
    3.5146    1.2832    1.8408 H   0  0  0  0  0  0  0  0  0  0  0  0
    6.2390   -0.1515    2.6231 H   0  0  0  0  0  0  0  0  0  0  0  0
    7.2842    1.0274    4.3180 H   0  0  0  0  0  0  0  0  0  0  0  0
    7.4556    2.4079    3.3437 H   0  0  0  0  0  0  0  0  0  0  0  0
    7.6056   -0.3905   -0.9752 H   0  0  0  0  0  0  0  0  0  0  0  0
    7.6379    1.2892   -0.4159 H   0  0  0  0  0  0  0  0  0  0  0  0
    8.1567    1.3208   -2.5032 H   0  0  0  0  0  0  0  0  0  0  0  0
  1  2  1  0
  2  3  2  0
  3  4  1  0
  4  5  1  0
  5  6  2  0
  6  7  1  0
  7  8  2  0
  8  9  1  0
  9 10  1  0
 10 11  1  0
 11 12  1  0
 12 13  1  0
 13 14  1  0
 14 15  1  0
 15 16  1  0
 16 17  1  0
  8 18  1  0
 18 19  2  0
  4 20  2  0
 20 21  1  0
 21 22  1  0
 22 23  2  3
 23 24  1  0
 21 25  2  0
 25 26  1  0
 26 27  1  0
 25  2  1  0
 19  5  1  0
 17 12  1  0
  1 28  1  0
  1 29  1  0
  1 30  1  0
  6 31  1  0
  7 32  1  0
 10 33  1  0
 10 34  1  0
 11 35  1  0
 11 36  1  0
 13 37  1  0
 13 38  1  0
 14 39  1  0
 14 40  1  0
 16 41  1  0
 16 42  1  0
 17 43  1  0
 17 44  1  0
 18 45  1  0
 19 46  1  0
 20 47  1  0
 23 48  1  0
 24 49  1  0
 24 50  1  0
 26 51  1  0
 26 52  1  0
 27 53  1  0
M  END
$$$$
