
     RDKit          3D

 33 35  0  0  0  0  0  0  0  0999 V2000
   -1.8318    1.7441   -2.8860 O   0  0  0  0  0  0  0  0  0  0  0  0
   -2.3297    1.1327   -1.9538 C   0  0  0  0  0  0  0  0  0  0  0  0
   -3.4777    0.3495   -2.0330 N   0  0  0  0  0  0  0  0  0  0  0  0
   -3.7859   -0.2218   -0.8091 C   0  0  0  0  0  0  0  0  0  0  0  0
   -4.8448   -1.0546   -0.5175 C   0  0  0  0  0  0  0  0  0  0  0  0
   -4.9554   -1.5132    0.7974 C   0  0  0  0  0  0  0  0  0  0  0  0
   -4.0166   -1.1320    1.7744 C   0  0  0  0  0  0  0  0  0  0  0  0
   -2.9505   -0.2857    1.4537 C   0  0  0  0  0  0  0  0  0  0  0  0
   -2.8464    0.1612    0.1478 C   0  0  0  0  0  0  0  0  0  0  0  0
   -1.8289    1.0769   -0.4842 C   0  0  0  0  0  0  0  0  0  0  0  0
   -0.4250    0.5487   -0.4153 C   0  0  0  0  0  0  0  0  0  0  0  0
    0.6163    1.2471    0.0728 C   0  0  0  0  0  0  0  0  0  0  0  0
    2.0017    0.7387    0.1411 C   0  0  0  0  0  0  0  0  0  0  0  0
    2.1702   -0.5526   -0.2569 N   0  0  0  0  0  0  0  0  0  0  0  0
    3.4154   -1.0801   -0.2203 C   0  0  0  0  0  0  0  0  0  0  0  0
    4.5344   -0.3879    0.2104 C   0  0  0  0  0  0  0  0  0  0  0  0
    5.8788   -1.0446    0.1961 C   0  0  0  0  0  0  0  0  0  0  0  0
    6.7415   -0.5104    1.1040 F   0  0  0  0  0  0  0  0  0  0  0  0
    6.4934   -0.9386   -1.0124 F   0  0  0  0  0  0  0  0  0  0  0  0
    5.8240   -2.3759    0.4748 F   0  0  0  0  0  0  0  0  0  0  0  0
    4.3537    0.9384    0.6142 C   0  0  0  0  0  0  0  0  0  0  0  0
    3.0795    1.5124    0.5858 C   0  0  0  0  0  0  0  0  0  0  0  0
    2.9313    3.1523    1.1063 Cl  0  0  0  0  0  0  0  0  0  0  0  0
   -3.9919    0.2225   -2.8912 H   0  0  0  0  0  0  0  0  0  0  0  0
   -5.5665   -1.3471   -1.2711 H   0  0  0  0  0  0  0  0  0  0  0  0
   -5.7752   -2.1733    1.0718 H   0  0  0  0  0  0  0  0  0  0  0  0
   -4.1221   -1.5025    2.7920 H   0  0  0  0  0  0  0  0  0  0  0  0
   -2.2263    0.0050    2.2082 H   0  0  0  0  0  0  0  0  0  0  0  0
   -1.9295    2.0824   -0.0592 H   0  0  0  0  0  0  0  0  0  0  0  0
   -0.2695   -0.4588   -0.7997 H   0  0  0  0  0  0  0  0  0  0  0  0
    0.4471    2.2551    0.4383 H   0  0  0  0  0  0  0  0  0  0  0  0
    3.4795   -2.1124   -0.5603 H   0  0  0  0  0  0  0  0  0  0  0  0
    5.2071    1.5246    0.9513 H   0  0  0  0  0  0  0  0  0  0  0  0
  1  2  2  0
  2  3  1  0
  3  4  1  0
  4  5  2  0
  5  6  1  0
  6  7  2  0
  7  8  1  0
  8  9  2  0
  9 10  1  0
 10 11  1  0
 11 12  2  3
 12 13  1  0
 13 14  2  0
 14 15  1  0
 15 16  2  0
 16 17  1  0
 17 18  1  0
 17 19  1  0
 17 20  1  0
 16 21  1  0
 21 22  2  0
 22 23  1  0
 10  2  1  0
 22 13  1  0
  9  4  1  0
  3 24  1  0
  5 25  1  0
  6 26  1  0
  7 27  1  0
  8 28  1  0
 10 29  1  0
 11 30  1  0
 12 31  1  0
 15 32  1  0
 21 33  1  0
M  END
$$$$
