
     RDKit          3D

 53 56  0  0  0  0  0  0  0  0999 V2000
    2.9226    1.3070    1.0278 C   0  0  0  0  0  0  0  0  0  0  0  0
    2.8622    0.7268   -0.3924 C   0  0  0  0  0  0  0  0  0  0  0  0
    1.3919    0.6390   -0.9305 C   0  0  0  0  0  0  0  0  0  0  0  0
    0.5835   -0.5437   -0.5687 N   0  0  0  0  0  0  0  0  0  0  0  0
   -0.0619   -0.4616    0.7466 C   0  0  0  0  0  0  0  0  0  0  0  0
   -1.2749    0.4102    0.7457 C   0  0  0  0  0  0  0  0  0  0  0  0
   -2.5607    0.1341    0.4268 C   0  0  0  0  0  0  0  0  0  0  0  0
   -3.0210   -1.1752   -0.0506 C   0  0  0  0  0  0  0  0  0  0  0  0
   -3.9075   -1.9318    0.7264 C   0  0  0  0  0  0  0  0  0  0  0  0
   -4.3546   -3.1768    0.2784 C   0  0  0  0  0  0  0  0  0  0  0  0
   -3.9206   -3.6733   -0.9496 C   0  0  0  0  0  0  0  0  0  0  0  0
   -3.0413   -2.9260   -1.7311 C   0  0  0  0  0  0  0  0  0  0  0  0
   -2.5944   -1.6810   -1.2843 C   0  0  0  0  0  0  0  0  0  0  0  0
   -3.3687    1.3298    0.6811 C   0  0  0  0  0  0  0  0  0  0  0  0
   -4.7198    1.5678    0.4858 C   0  0  0  0  0  0  0  0  0  0  0  0
   -5.2319    2.8272    0.8244 C   0  0  0  0  0  0  0  0  0  0  0  0
   -4.3962    3.8298    1.3495 C   0  0  0  0  0  0  0  0  0  0  0  0
   -3.0360    3.5875    1.5399 C   0  0  0  0  0  0  0  0  0  0  0  0
   -2.5640    2.3349    1.1930 C   0  0  0  0  0  0  0  0  0  0  0  0
   -1.2165    1.7957    1.2744 C   0  0  0  0  0  0  0  0  0  0  0  0
   -0.2449    2.3766    1.7134 O   0  0  0  0  0  0  0  0  0  0  0  0
    1.4046   -1.7573   -0.7133 C   0  0  0  0  0  0  0  0  0  0  0  0
    2.7930   -1.6860   -0.0465 C   0  0  0  0  0  0  0  0  0  0  0  0
    3.5853   -0.5575   -0.5642 N   0  0  0  0  0  0  0  0  0  0  0  0
    4.9565   -0.5914   -0.0357 C   0  0  0  0  0  0  0  0  0  0  0  0
    5.9155    0.3987   -0.7113 C   0  0  0  0  0  0  0  0  0  0  0  0
    7.2306    0.2220   -0.1890 O   0  0  0  0  0  0  0  0  0  0  0  0
    2.6009    0.5960    1.7918 H   0  0  0  0  0  0  0  0  0  0  0  0
    3.9404    1.6194    1.2835 H   0  0  0  0  0  0  0  0  0  0  0  0
    2.2975    2.2016    1.1048 H   0  0  0  0  0  0  0  0  0  0  0  0
    3.3545    1.4613   -1.0436 H   0  0  0  0  0  0  0  0  0  0  0  0
    1.4633    0.6228   -2.0280 H   0  0  0  0  0  0  0  0  0  0  0  0
    0.8538    1.5681   -0.7108 H   0  0  0  0  0  0  0  0  0  0  0  0
   -0.3961   -1.4636    1.0491 H   0  0  0  0  0  0  0  0  0  0  0  0
    0.6311   -0.1590    1.5351 H   0  0  0  0  0  0  0  0  0  0  0  0
   -4.2513   -1.5603    1.6892 H   0  0  0  0  0  0  0  0  0  0  0  0
   -5.0394   -3.7599    0.8890 H   0  0  0  0  0  0  0  0  0  0  0  0
   -4.2671   -4.6430   -1.2979 H   0  0  0  0  0  0  0  0  0  0  0  0
   -2.7004   -3.3106   -2.6889 H   0  0  0  0  0  0  0  0  0  0  0  0
   -1.9068   -1.1088   -1.9051 H   0  0  0  0  0  0  0  0  0  0  0  0
   -5.3719    0.8028    0.0752 H   0  0  0  0  0  0  0  0  0  0  0  0
   -6.2902    3.0342    0.6776 H   0  0  0  0  0  0  0  0  0  0  0  0
   -4.8146    4.8008    1.6056 H   0  0  0  0  0  0  0  0  0  0  0  0
   -2.3711    4.3448    1.9408 H   0  0  0  0  0  0  0  0  0  0  0  0
    0.8634   -2.6381   -0.3460 H   0  0  0  0  0  0  0  0  0  0  0  0
    1.5449   -1.9391   -1.7878 H   0  0  0  0  0  0  0  0  0  0  0  0
    3.3104   -2.6276   -0.2684 H   0  0  0  0  0  0  0  0  0  0  0  0
    2.6854   -1.6293    1.0436 H   0  0  0  0  0  0  0  0  0  0  0  0
    4.9795   -0.4500    1.0522 H   0  0  0  0  0  0  0  0  0  0  0  0
    5.3775   -1.5932   -0.1972 H   0  0  0  0  0  0  0  0  0  0  0  0
    5.6203    1.4356   -0.5280 H   0  0  0  0  0  0  0  0  0  0  0  0
    5.9494    0.2244   -1.7918 H   0  0  0  0  0  0  0  0  0  0  0  0
    7.8061    0.8454   -0.6644 H   0  0  0  0  0  0  0  0  0  0  0  0
  1  2  1  0
  2  3  1  0
  3  4  1  0
  4  5  1  0
  5  6  1  0
  6  7  2  0
  7  8  1  0
  8  9  2  0
  9 10  1  0
 10 11  2  0
 11 12  1  0
 12 13  2  0
  7 14  1  0
 14 15  2  0
 15 16  1  0
 16 17  2  0
 17 18  1  0
 18 19  2  0
 19 20  1  0
 20 21  2  0
  4 22  1  0
 22 23  1  0
 23 24  1  0
 24 25  1  0
 25 26  1  0
 26 27  1  0
 24  2  1  0
 20  6  1  0
 13  8  1  0
 19 14  1  0
  1 28  1  0
  1 29  1  0
  1 30  1  0
  2 31  1  0
  3 32  1  0
  3 33  1  0
  5 34  1  0
  5 35  1  0
  9 36  1  0
 10 37  1  0
 11 38  1  0
 12 39  1  0
 13 40  1  0
 15 41  1  0
 16 42  1  0
 17 43  1  0
 18 44  1  0
 22 45  1  0
 22 46  1  0
 23 47  1  0
 23 48  1  0
 25 49  1  0
 25 50  1  0
 26 51  1  0
 26 52  1  0
 27 53  1  0
M  END
$$$$
