
     RDKit          3D

 38 41  0  0  0  0  0  0  0  0999 V2000
    6.4619   -0.3449    1.7009 C   0  0  0  0  0  0  0  0  0  0  0  0
    5.2408   -0.8663    1.1242 N   0  0  0  0  0  0  0  0  0  0  0  0
    4.5591   -0.0286    0.2653 C   0  0  0  0  0  0  0  0  0  0  0  0
    5.2240    0.7137   -0.6203 N   0  0  0  0  0  0  0  0  0  0  0  0
    4.4901    1.3674   -1.5308 C   0  0  0  0  0  0  0  0  0  0  0  0
    3.1203    1.3274   -1.5765 C   0  0  0  0  0  0  0  0  0  0  0  0
    2.5044    0.5644   -0.5971 C   0  0  0  0  0  0  0  0  0  0  0  0
    1.0335    0.4194   -0.5337 C   0  0  0  0  0  0  0  0  0  0  0  0
    0.3868   -0.0984    0.5837 C   0  0  0  0  0  0  0  0  0  0  0  0
   -1.0135   -0.2429    0.5903 C   0  0  0  0  0  0  0  0  0  0  0  0
   -1.7567    0.0806   -0.5596 C   0  0  0  0  0  0  0  0  0  0  0  0
   -1.0212    0.6317   -1.6137 C   0  0  0  0  0  0  0  0  0  0  0  0
    0.3255    0.8100   -1.6247 N   0  0  0  0  0  0  0  0  0  0  0  0
   -3.2226   -0.1188   -0.6262 C   0  0  0  0  0  0  0  0  0  0  0  0
   -3.9129   -0.3139   -1.8333 C   0  0  0  0  0  0  0  0  0  0  0  0
   -3.2456   -0.3830   -2.9892 F   0  0  0  0  0  0  0  0  0  0  0  0
   -5.2995   -0.4895   -1.8891 C   0  0  0  0  0  0  0  0  0  0  0  0
   -6.0519   -0.4787   -0.7227 C   0  0  0  0  0  0  0  0  0  0  0  0
   -5.4096   -0.3041    0.4997 C   0  0  0  0  0  0  0  0  0  0  0  0
   -4.0169   -0.1370    0.5323 C   0  0  0  0  0  0  0  0  0  0  0  0
   -3.2231   -0.0230    2.1053 S   0  0  0  0  0  0  0  0  0  0  0  0
   -3.0264    1.3871    2.3714 O   0  0  0  0  0  0  0  0  0  0  0  0
   -3.9700   -0.8585    3.0232 O   0  0  0  0  0  0  0  0  0  0  0  0
   -1.6549   -0.8150    1.8235 C   0  0  0  0  0  0  0  0  0  0  0  0
    3.2239   -0.1156    0.3301 N   0  0  0  0  0  0  0  0  0  0  0  0
    6.2402    0.2996    2.5582 H   0  0  0  0  0  0  0  0  0  0  0  0
    7.0576   -1.1854    2.0661 H   0  0  0  0  0  0  0  0  0  0  0  0
    7.0858    0.2066    0.9883 H   0  0  0  0  0  0  0  0  0  0  0  0
    4.5594   -1.2486    1.7865 H   0  0  0  0  0  0  0  0  0  0  0  0
    5.0532    1.9227   -2.2718 H   0  0  0  0  0  0  0  0  0  0  0  0
    2.5630    1.8446   -2.3481 H   0  0  0  0  0  0  0  0  0  0  0  0
    0.9743   -0.4003    1.4432 H   0  0  0  0  0  0  0  0  0  0  0  0
   -1.5041    0.9813   -2.5212 H   0  0  0  0  0  0  0  0  0  0  0  0
   -5.7801   -0.6488   -2.8510 H   0  0  0  0  0  0  0  0  0  0  0  0
   -7.1300   -0.6174   -0.7634 H   0  0  0  0  0  0  0  0  0  0  0  0
   -5.9894   -0.3090    1.4232 H   0  0  0  0  0  0  0  0  0  0  0  0
   -1.8208   -1.8960    1.7064 H   0  0  0  0  0  0  0  0  0  0  0  0
   -1.0545   -0.6330    2.7181 H   0  0  0  0  0  0  0  0  0  0  0  0
  1  2  1  0
  2  3  1  0
  3  4  2  0
  4  5  1  0
  5  6  2  0
  6  7  1  0
  7  8  1  0
  8  9  2  0
  9 10  1  0
 10 11  2  0
 11 12  1  0
 12 13  2  0
 11 14  1  0
 14 15  2  0
 15 16  1  0
 15 17  1  0
 17 18  2  0
 18 19  1  0
 19 20  2  0
 20 21  1  0
 21 22  2  0
 21 23  2  0
 21 24  1  0
  7 25  2  0
 25  3  1  0
 13  8  1  0
 20 14  1  0
 24 10  1  0
  1 26  1  0
  1 27  1  0
  1 28  1  0
  2 29  1  0
  5 30  1  0
  6 31  1  0
  9 32  1  0
 12 33  1  0
 17 34  1  0
 18 35  1  0
 19 36  1  0
 24 37  1  0
 24 38  1  0
M  END
$$$$
