
     RDKit          3D

 35 37  0  0  0  0  0  0  0  0999 V2000
   -7.0659    0.0638   -1.0744 C   0  0  0  0  0  0  0  0  0  0  0  0
   -5.9934   -0.1296   -1.9874 O   0  0  0  0  0  0  0  0  0  0  0  0
   -4.7243   -0.0291   -1.4888 C   0  0  0  0  0  0  0  0  0  0  0  0
   -4.3878    0.2122   -0.1579 C   0  0  0  0  0  0  0  0  0  0  0  0
   -3.0411    0.2916    0.2321 C   0  0  0  0  0  0  0  0  0  0  0  0
   -2.0128    0.1362   -0.7006 C   0  0  0  0  0  0  0  0  0  0  0  0
   -0.6389    0.1923   -0.3819 N   0  0  0  0  0  0  0  0  0  0  0  0
   -0.0707    0.5504    0.8292 C   0  0  0  0  0  0  0  0  0  0  0  0
   -0.6870    0.9758    1.7981 O   0  0  0  0  0  0  0  0  0  0  0  0
    1.3744    0.4114    0.8514 C   0  0  0  0  0  0  0  0  0  0  0  0
    2.2809    1.1280    1.6194 C   0  0  0  0  0  0  0  0  0  0  0  0
    3.5795    0.6555    1.3297 C   0  0  0  0  0  0  0  0  0  0  0  0
    4.7696    1.0698    1.8213 N   0  0  0  0  0  0  0  0  0  0  0  0
    5.8441    0.4111    1.3628 C   0  0  0  0  0  0  0  0  0  0  0  0
    7.0826    0.8402    1.8493 N   0  0  0  0  0  0  0  0  0  0  0  0
    5.7949   -0.6273    0.4364 C   0  0  0  0  0  0  0  0  0  0  0  0
    4.5691   -1.0570   -0.0706 C   0  0  0  0  0  0  0  0  0  0  0  0
    3.4534   -0.3752    0.4064 C   0  0  0  0  0  0  0  0  0  0  0  0
    2.1128   -0.5179    0.1452 N   0  0  0  0  0  0  0  0  0  0  0  0
   -2.3507   -0.1118   -2.0328 C   0  0  0  0  0  0  0  0  0  0  0  0
   -3.6902   -0.1905   -2.4129 C   0  0  0  0  0  0  0  0  0  0  0  0
   -3.9702   -0.4294   -3.7037 F   0  0  0  0  0  0  0  0  0  0  0  0
   -7.0629   -0.7048   -0.2945 H   0  0  0  0  0  0  0  0  0  0  0  0
   -7.0390    1.0686   -0.6400 H   0  0  0  0  0  0  0  0  0  0  0  0
   -8.0020   -0.0325   -1.6328 H   0  0  0  0  0  0  0  0  0  0  0  0
   -5.1431    0.3429    0.6106 H   0  0  0  0  0  0  0  0  0  0  0  0
   -2.8349    0.4728    1.2835 H   0  0  0  0  0  0  0  0  0  0  0  0
   -0.0057    0.0748   -1.1597 H   0  0  0  0  0  0  0  0  0  0  0  0
    2.0288    1.9213    2.3110 H   0  0  0  0  0  0  0  0  0  0  0  0
    6.8872    1.5686    2.5328 H   0  0  0  0  0  0  0  0  0  0  0  0
    7.6012    0.0729    2.2599 H   0  0  0  0  0  0  0  0  0  0  0  0
    6.7135   -1.0972    0.0993 H   0  0  0  0  0  0  0  0  0  0  0  0
    4.5007   -1.8625   -0.7917 H   0  0  0  0  0  0  0  0  0  0  0  0
    1.7240   -1.2373   -0.4481 H   0  0  0  0  0  0  0  0  0  0  0  0
   -1.5958   -0.2440   -2.8007 H   0  0  0  0  0  0  0  0  0  0  0  0
  1  2  1  0
  2  3  1  0
  3  4  2  0
  4  5  1  0
  5  6  2  0
  6  7  1  0
  7  8  1  0
  8  9  2  0
  8 10  1  0
 10 11  2  0
 11 12  1  0
 12 13  2  0
 13 14  1  0
 14 15  1  0
 14 16  2  0
 16 17  1  0
 17 18  2  0
 18 19  1  0
  6 20  1  0
 20 21  2  0
 21 22  1  0
 21  3  1  0
 19 10  1  0
 18 12  1  0
  1 23  1  0
  1 24  1  0
  1 25  1  0
  4 26  1  0
  5 27  1  0
  7 28  1  0
 11 29  1  0
 15 30  1  0
 15 31  1  0
 16 32  1  0
 17 33  1  0
 19 34  1  0
 20 35  1  0
M  END
$$$$
