
     RDKit          3D

 46 48  0  0  0  0  0  0  0  0999 V2000
    6.2517    1.7841    1.7448 C   0  0  0  0  0  0  0  0  0  0  0  0
    5.9122    0.8232    0.7556 O   0  0  0  0  0  0  0  0  0  0  0  0
    4.5800    0.6351    0.4807 C   0  0  0  0  0  0  0  0  0  0  0  0
    3.5365    1.2931    1.1395 C   0  0  0  0  0  0  0  0  0  0  0  0
    2.2071    1.0344    0.7970 C   0  0  0  0  0  0  0  0  0  0  0  0
    1.9009    0.1162   -0.2120 C   0  0  0  0  0  0  0  0  0  0  0  0
    0.4635   -0.1827   -0.5609 C   0  0  0  0  0  0  0  0  0  0  0  0
   -0.0656   -1.3949    0.2166 C   0  0  0  0  0  0  0  0  0  0  0  0
   -1.4839   -1.6431   -0.0785 N   0  0  0  0  0  0  0  0  0  0  0  0
   -1.7230   -2.4666   -1.2675 C   0  0  0  0  0  0  0  0  0  0  0  0
   -2.4976   -0.7979    0.3428 C   0  0  0  0  0  0  0  0  0  0  0  0
   -3.6019   -0.6768   -0.3332 N   0  0  0  0  0  0  0  0  0  0  0  0
   -4.6041    0.1920    0.1233 C   0  0  0  0  0  0  0  0  0  0  0  0
   -5.7796    0.3152   -0.6203 C   0  0  0  0  0  0  0  0  0  0  0  0
   -6.7958    1.1704   -0.1901 C   0  0  0  0  0  0  0  0  0  0  0  0
   -8.2410    1.3094   -1.1135 Cl  0  0  0  0  0  0  0  0  0  0  0  0
   -6.6531    1.9133    0.9829 C   0  0  0  0  0  0  0  0  0  0  0  0
   -5.4842    1.7970    1.7348 C   0  0  0  0  0  0  0  0  0  0  0  0
   -4.4729    0.9363    1.2959 C   0  0  0  0  0  0  0  0  0  0  0  0
   -3.2295    0.7651    2.0575 C   0  0  0  0  0  0  0  0  0  0  0  0
   -3.0300    1.3442    3.1189 O   0  0  0  0  0  0  0  0  0  0  0  0
   -2.3110   -0.0903    1.5053 N   0  0  0  0  0  0  0  0  0  0  0  0
    2.9462   -0.5459   -0.8738 C   0  0  0  0  0  0  0  0  0  0  0  0
    4.2824   -0.2932   -0.5365 C   0  0  0  0  0  0  0  0  0  0  0  0
    5.3609   -0.8997   -1.1331 O   0  0  0  0  0  0  0  0  0  0  0  0
    5.1052   -1.8208   -2.1825 C   0  0  0  0  0  0  0  0  0  0  0  0
    5.8636    1.4936    2.7269 H   0  0  0  0  0  0  0  0  0  0  0  0
    7.3429    1.8192    1.8163 H   0  0  0  0  0  0  0  0  0  0  0  0
    5.9056    2.7837    1.4612 H   0  0  0  0  0  0  0  0  0  0  0  0
    3.7239    2.0153    1.9271 H   0  0  0  0  0  0  0  0  0  0  0  0
    1.4143    1.5616    1.3253 H   0  0  0  0  0  0  0  0  0  0  0  0
    0.3795   -0.3575   -1.6409 H   0  0  0  0  0  0  0  0  0  0  0  0
   -0.1510    0.7042   -0.3601 H   0  0  0  0  0  0  0  0  0  0  0  0
    0.5279   -2.2838   -0.0333 H   0  0  0  0  0  0  0  0  0  0  0  0
    0.0806   -1.2583    1.2943 H   0  0  0  0  0  0  0  0  0  0  0  0
   -1.7106   -1.8483   -2.1716 H   0  0  0  0  0  0  0  0  0  0  0  0
   -0.9608   -3.2463   -1.3723 H   0  0  0  0  0  0  0  0  0  0  0  0
   -2.6900   -2.9780   -1.2000 H   0  0  0  0  0  0  0  0  0  0  0  0
   -5.8951   -0.2640   -1.5318 H   0  0  0  0  0  0  0  0  0  0  0  0
   -7.4462    2.5786    1.3145 H   0  0  0  0  0  0  0  0  0  0  0  0
   -5.3607    2.3698    2.6508 H   0  0  0  0  0  0  0  0  0  0  0  0
   -1.4913   -0.2454    2.0649 H   0  0  0  0  0  0  0  0  0  0  0  0
    2.6931   -1.2556   -1.6543 H   0  0  0  0  0  0  0  0  0  0  0  0
    4.5312   -2.6800   -1.8206 H   0  0  0  0  0  0  0  0  0  0  0  0
    4.6015   -1.3324   -3.0227 H   0  0  0  0  0  0  0  0  0  0  0  0
    6.0684   -2.1934   -2.5442 H   0  0  0  0  0  0  0  0  0  0  0  0
  1  2  1  0
  2  3  1  0
  3  4  2  0
  4  5  1  0
  5  6  2  0
  6  7  1  0
  7  8  1  0
  8  9  1  0
  9 10  1  0
  9 11  1  0
 11 12  2  0
 12 13  1  0
 13 14  2  0
 14 15  1  0
 15 16  1  0
 15 17  2  0
 17 18  1  0
 18 19  2  0
 19 20  1  0
 20 21  2  0
 20 22  1  0
  6 23  1  0
 23 24  2  0
 24 25  1  0
 25 26  1  0
 24  3  1  0
 22 11  1  0
 19 13  1  0
  1 27  1  0
  1 28  1  0
  1 29  1  0
  4 30  1  0
  5 31  1  0
  7 32  1  0
  7 33  1  0
  8 34  1  0
  8 35  1  0
 10 36  1  0
 10 37  1  0
 10 38  1  0
 14 39  1  0
 17 40  1  0
 18 41  1  0
 22 42  1  0
 23 43  1  0
 26 44  1  0
 26 45  1  0
 26 46  1  0
M  END
$$$$
