
     RDKit          3D

 51 54  0  0  0  0  0  0  0  0999 V2000
    6.7126   -3.1325   -0.6430 C   0  0  0  0  0  0  0  0  0  0  0  0
    6.6651   -2.1384    0.3818 O   0  0  0  0  0  0  0  0  0  0  0  0
    5.4635   -1.4867    0.4437 C   0  0  0  0  0  0  0  0  0  0  0  0
    5.5155   -0.0952    0.4758 C   0  0  0  0  0  0  0  0  0  0  0  0
    4.3348    0.6496    0.5752 C   0  0  0  0  0  0  0  0  0  0  0  0
    3.0880    0.0130    0.6619 C   0  0  0  0  0  0  0  0  0  0  0  0
    1.9497    0.8428    0.7501 N   0  0  0  0  0  0  0  0  0  0  0  0
    0.6232    0.4560    0.8564 C   0  0  0  0  0  0  0  0  0  0  0  0
    0.2505   -0.7101    0.8960 O   0  0  0  0  0  0  0  0  0  0  0  0
   -0.3128    1.5774    0.9087 C   0  0  0  0  0  0  0  0  0  0  0  0
   -0.0649    2.8621    1.3827 C   0  0  0  0  0  0  0  0  0  0  0  0
   -1.2403    3.6241    1.2737 C   0  0  0  0  0  0  0  0  0  0  0  0
   -1.4315    4.9199    1.6169 N   0  0  0  0  0  0  0  0  0  0  0  0
   -2.6804    5.3823    1.4113 C   0  0  0  0  0  0  0  0  0  0  0  0
   -3.7321    4.6446    0.8927 C   0  0  0  0  0  0  0  0  0  0  0  0
   -3.5208    3.3134    0.5423 C   0  0  0  0  0  0  0  0  0  0  0  0
   -2.2297    2.8054    0.7440 C   0  0  0  0  0  0  0  0  0  0  0  0
   -1.6553    1.5584    0.5220 N   0  0  0  0  0  0  0  0  0  0  0  0
   -2.3952    0.4359   -0.0669 C   0  0  0  0  0  0  0  0  0  0  0  0
   -1.8081   -0.0854   -1.3835 C   0  0  0  0  0  0  0  0  0  0  0  0
   -2.6985   -1.1787   -1.9903 C   0  0  0  0  0  0  0  0  0  0  0  0
   -3.4657   -1.9461   -0.9980 N   0  0  0  0  0  0  0  0  0  0  0  0
   -3.8274   -3.2615   -1.5224 C   0  0  0  0  0  0  0  0  0  0  0  0
   -2.7582   -2.0541    0.2786 C   0  0  0  0  0  0  0  0  0  0  0  0
   -2.7142   -0.6783    0.9432 C   0  0  0  0  0  0  0  0  0  0  0  0
    3.0462   -1.3813    0.6556 C   0  0  0  0  0  0  0  0  0  0  0  0
    4.2265   -2.1201    0.5603 C   0  0  0  0  0  0  0  0  0  0  0  0
    4.1411   -3.4580    0.6109 F   0  0  0  0  0  0  0  0  0  0  0  0
    6.4929   -2.6863   -1.6290 H   0  0  0  0  0  0  0  0  0  0  0  0
    6.0380   -3.9832   -0.4441 H   0  0  0  0  0  0  0  0  0  0  0  0
    7.7387   -3.5258   -0.6660 H   0  0  0  0  0  0  0  0  0  0  0  0
    6.4763    0.4112    0.4148 H   0  0  0  0  0  0  0  0  0  0  0  0
    4.4120    1.7331    0.5987 H   0  0  0  0  0  0  0  0  0  0  0  0
    2.1259    1.8361    0.7019 H   0  0  0  0  0  0  0  0  0  0  0  0
    0.8632    3.2294    1.7984 H   0  0  0  0  0  0  0  0  0  0  0  0
   -2.8292    6.4226    1.6916 H   0  0  0  0  0  0  0  0  0  0  0  0
   -4.7085    5.0998    0.7649 H   0  0  0  0  0  0  0  0  0  0  0  0
   -4.3296    2.7147    0.1404 H   0  0  0  0  0  0  0  0  0  0  0  0
   -3.3695    0.8501   -0.3553 H   0  0  0  0  0  0  0  0  0  0  0  0
   -0.8071   -0.5027   -1.2368 H   0  0  0  0  0  0  0  0  0  0  0  0
   -1.6901    0.7358   -2.1029 H   0  0  0  0  0  0  0  0  0  0  0  0
   -3.4114   -0.7160   -2.6838 H   0  0  0  0  0  0  0  0  0  0  0  0
   -2.0537   -1.8334   -2.5923 H   0  0  0  0  0  0  0  0  0  0  0  0
   -4.4791   -3.7899   -0.8171 H   0  0  0  0  0  0  0  0  0  0  0  0
   -4.3927   -3.1625   -2.4550 H   0  0  0  0  0  0  0  0  0  0  0  0
   -2.9472   -3.8887   -1.7108 H   0  0  0  0  0  0  0  0  0  0  0  0
   -1.7482   -2.4611    0.1393 H   0  0  0  0  0  0  0  0  0  0  0  0
   -3.2824   -2.7371    0.9578 H   0  0  0  0  0  0  0  0  0  0  0  0
   -2.0106   -0.7046    1.7832 H   0  0  0  0  0  0  0  0  0  0  0  0
   -3.6910   -0.4611    1.3990 H   0  0  0  0  0  0  0  0  0  0  0  0
    2.1216   -1.9389    0.7361 H   0  0  0  0  0  0  0  0  0  0  0  0
  1  2  1  0
  2  3  1  0
  3  4  2  0
  4  5  1  0
  5  6  2  0
  6  7  1  0
  7  8  1  0
  8  9  2  0
  8 10  1  0
 10 11  2  0
 11 12  1  0
 12 13  2  0
 13 14  1  0
 14 15  2  0
 15 16  1  0
 16 17  2  0
 17 18  1  0
 18 19  1  0
 19 20  1  0
 20 21  1  0
 21 22  1  0
 22 23  1  0
 22 24  1  0
 24 25  1  0
  6 26  1  0
 26 27  2  0
 27 28  1  0
 27  3  1  0
 18 10  1  0
 25 19  1  0
 17 12  1  0
  1 29  1  0
  1 30  1  0
  1 31  1  0
  4 32  1  0
  5 33  1  0
  7 34  1  0
 11 35  1  0
 14 36  1  0
 15 37  1  0
 16 38  1  0
 19 39  1  0
 20 40  1  0
 20 41  1  0
 21 42  1  0
 21 43  1  0
 23 44  1  0
 23 45  1  0
 23 46  1  0
 24 47  1  0
 24 48  1  0
 25 49  1  0
 25 50  1  0
 26 51  1  0
M  END
$$$$
