
     RDKit          3D

 55 58  0  0  0  0  0  0  0  0999 V2000
    5.4574    1.6974   -2.1755 C   0  0  0  0  0  0  0  0  0  0  0  0
    5.2648    0.2898   -1.6067 C   0  0  0  0  0  0  0  0  0  0  0  0
    6.0177   -0.7237   -2.4736 C   0  0  0  0  0  0  0  0  0  0  0  0
    5.7286    0.2495   -0.1391 C   0  0  0  0  0  0  0  0  0  0  0  0
    5.3573   -1.0197    0.5481 C   0  0  0  0  0  0  0  0  0  0  0  0
    6.1544   -2.0502    0.7561 N   0  0  0  0  0  0  0  0  0  0  0  0
    5.4377   -3.0299    1.4025 N   0  0  0  0  0  0  0  0  0  0  0  0
    4.2167   -2.5806    1.5833 C   0  0  0  0  0  0  0  0  0  0  0  0
    3.0597   -3.1487    2.1797 C   0  0  0  0  0  0  0  0  0  0  0  0
    1.9188   -2.4338    2.2270 C   0  0  0  0  0  0  0  0  0  0  0  0
    1.8317   -1.0775    1.6811 C   0  0  0  0  0  0  0  0  0  0  0  0
    0.6014   -0.2762    1.7160 C   0  0  0  0  0  0  0  0  0  0  0  0
    0.3818    0.6380    2.7402 C   0  0  0  0  0  0  0  0  0  0  0  0
   -0.7893    1.3687    2.7085 C   0  0  0  0  0  0  0  0  0  0  0  0
   -1.7302    1.2421    1.7479 N   0  0  0  0  0  0  0  0  0  0  0  0
   -1.5255    0.3425    0.7654 C   0  0  0  0  0  0  0  0  0  0  0  0
   -2.4522    0.1988   -0.2758 N   0  0  0  0  0  0  0  0  0  0  0  0
   -3.6773    1.0074   -0.1982 C   0  0  0  0  0  0  0  0  0  0  0  0
   -4.2805    1.0878   -1.6101 C   0  0  0  0  0  0  0  0  0  0  0  0
   -5.7803    1.3490   -1.5354 C   0  0  0  0  0  0  0  0  0  0  0  0
   -6.4954    0.2320   -0.9037 N   0  0  0  0  0  0  0  0  0  0  0  0
   -7.8141    0.6560   -0.4398 C   0  0  0  0  0  0  0  0  0  0  0  0
   -5.7288   -0.4482    0.1475 C   0  0  0  0  0  0  0  0  0  0  0  0
   -4.6808    0.4358    0.8184 C   0  0  0  0  0  0  0  0  0  0  0  0
   -0.3649   -0.4246    0.7183 C   0  0  0  0  0  0  0  0  0  0  0  0
    2.9358   -0.5478    1.1131 C   0  0  0  0  0  0  0  0  0  0  0  0
    4.1101   -1.2982    1.0664 N   0  0  0  0  0  0  0  0  0  0  0  0
    6.5122    1.9930   -2.1581 H   0  0  0  0  0  0  0  0  0  0  0  0
    5.1079    1.7485   -3.2121 H   0  0  0  0  0  0  0  0  0  0  0  0
    4.8889    2.4327   -1.5961 H   0  0  0  0  0  0  0  0  0  0  0  0
    4.1947    0.0515   -1.6599 H   0  0  0  0  0  0  0  0  0  0  0  0
    7.0961   -0.5336   -2.4612 H   0  0  0  0  0  0  0  0  0  0  0  0
    5.6779   -0.6710   -3.5130 H   0  0  0  0  0  0  0  0  0  0  0  0
    5.8489   -1.7479   -2.1267 H   0  0  0  0  0  0  0  0  0  0  0  0
    6.8181    0.3752   -0.0907 H   0  0  0  0  0  0  0  0  0  0  0  0
    5.3019    1.0954    0.4141 H   0  0  0  0  0  0  0  0  0  0  0  0
    3.1224   -4.1527    2.5840 H   0  0  0  0  0  0  0  0  0  0  0  0
    1.0259   -2.8578    2.6798 H   0  0  0  0  0  0  0  0  0  0  0  0
    1.0996    0.7857    3.5392 H   0  0  0  0  0  0  0  0  0  0  0  0
   -1.0129    2.1029    3.4773 H   0  0  0  0  0  0  0  0  0  0  0  0
   -2.6456   -0.7838   -0.4433 H   0  0  0  0  0  0  0  0  0  0  0  0
   -3.4241    2.0336    0.1016 H   0  0  0  0  0  0  0  0  0  0  0  0
   -4.0960    0.1639   -2.1755 H   0  0  0  0  0  0  0  0  0  0  0  0
   -3.7869    1.8898   -2.1728 H   0  0  0  0  0  0  0  0  0  0  0  0
   -5.9462    2.2874   -0.9889 H   0  0  0  0  0  0  0  0  0  0  0  0
   -6.1729    1.4936   -2.5488 H   0  0  0  0  0  0  0  0  0  0  0  0
   -8.3998   -0.2094   -0.1103 H   0  0  0  0  0  0  0  0  0  0  0  0
   -8.3792    1.1235   -1.2536 H   0  0  0  0  0  0  0  0  0  0  0  0
   -7.7508    1.3677    0.3898 H   0  0  0  0  0  0  0  0  0  0  0  0
   -5.2216   -1.3064   -0.3119 H   0  0  0  0  0  0  0  0  0  0  0  0
   -6.3911   -0.8787    0.9093 H   0  0  0  0  0  0  0  0  0  0  0  0
   -4.1797   -0.1315    1.6106 H   0  0  0  0  0  0  0  0  0  0  0  0
   -5.1942    1.2692    1.3165 H   0  0  0  0  0  0  0  0  0  0  0  0
   -0.2099   -1.1207   -0.0999 H   0  0  0  0  0  0  0  0  0  0  0  0
    2.9619    0.4443    0.6781 H   0  0  0  0  0  0  0  0  0  0  0  0
  1  2  1  0
  2  3  1  0
  2  4  1  0
  4  5  1  0
  5  6  2  0
  6  7  1  0
  7  8  2  0
  8  9  1  0
  9 10  2  0
 10 11  1  0
 11 12  1  0
 12 13  2  0
 13 14  1  0
 14 15  2  0
 15 16  1  0
 16 17  1  0
 17 18  1  0
 18 19  1  0
 19 20  1  0
 20 21  1  0
 21 22  1  0
 21 23  1  0
 23 24  1  0
 16 25  2  0
 11 26  2  0
 26 27  1  0
 27  5  1  0
 27  8  1  0
 25 12  1  0
 24 18  1  0
  1 28  1  0
  1 29  1  0
  1 30  1  0
  2 31  1  0
  3 32  1  0
  3 33  1  0
  3 34  1  0
  4 35  1  0
  4 36  1  0
  9 37  1  0
 10 38  1  0
 13 39  1  0
 14 40  1  0
 17 41  1  0
 18 42  1  0
 19 43  1  0
 19 44  1  0
 20 45  1  0
 20 46  1  0
 22 47  1  0
 22 48  1  0
 22 49  1  0
 23 50  1  0
 23 51  1  0
 24 52  1  0
 24 53  1  0
 25 54  1  0
 26 55  1  0
M  END
$$$$
