
     RDKit          3D

 56 59  0  0  0  0  0  0  0  0999 V2000
    5.3567   -0.6130   -1.9034 C   0  0  0  0  0  0  0  0  0  0  0  0
    5.9876    0.7398   -1.5634 C   0  0  0  0  0  0  0  0  0  0  0  0
    6.1599    1.5621   -2.8430 C   0  0  0  0  0  0  0  0  0  0  0  0
    5.1516    1.5320   -0.5420 C   0  0  0  0  0  0  0  0  0  0  0  0
    5.1622    0.9095    0.8126 C   0  0  0  0  0  0  0  0  0  0  0  0
    6.1531    0.9789    1.6817 N   0  0  0  0  0  0  0  0  0  0  0  0
    5.7896    0.2873    2.8127 N   0  0  0  0  0  0  0  0  0  0  0  0
    4.5825   -0.1922    2.6182 C   0  0  0  0  0  0  0  0  0  0  0  0
    3.7173   -0.9740    3.4277 C   0  0  0  0  0  0  0  0  0  0  0  0
    2.5076   -1.3305    2.9542 C   0  0  0  0  0  0  0  0  0  0  0  0
    2.0486   -0.9344    1.6198 C   0  0  0  0  0  0  0  0  0  0  0  0
    0.7388   -1.3217    1.0727 C   0  0  0  0  0  0  0  0  0  0  0  0
    0.4699   -2.6531    0.7730 C   0  0  0  0  0  0  0  0  0  0  0  0
   -0.7704   -2.9576    0.2476 C   0  0  0  0  0  0  0  0  0  0  0  0
   -1.7360   -2.0420    0.0172 N   0  0  0  0  0  0  0  0  0  0  0  0
   -1.4854   -0.7558    0.3264 C   0  0  0  0  0  0  0  0  0  0  0  0
   -2.4404    0.2402    0.0773 N   0  0  0  0  0  0  0  0  0  0  0  0
   -3.7385   -0.2051   -0.4517 C   0  0  0  0  0  0  0  0  0  0  0  0
   -4.5955   -0.8738    0.6365 C   0  0  0  0  0  0  0  0  0  0  0  0
   -6.0537   -0.4210    0.6062 C   0  0  0  0  0  0  0  0  0  0  0  0
   -6.5604   -0.3525   -0.7577 N   0  0  0  0  0  0  0  0  0  0  0  0
   -5.8315    0.6094   -1.6021 C   0  0  0  0  0  0  0  0  0  0  0  0
   -6.6840    1.8583   -1.9150 C   0  0  0  0  0  0  0  0  0  0  0  0
   -6.0238    2.7315   -2.8246 O   0  0  0  0  0  0  0  0  0  0  0  0
   -4.4596    1.0148   -1.0337 C   0  0  0  0  0  0  0  0  0  0  0  0
   -0.2541   -0.3643    0.8455 C   0  0  0  0  0  0  0  0  0  0  0  0
    2.8798   -0.1899    0.8598 C   0  0  0  0  0  0  0  0  0  0  0  0
    4.1301    0.1744    1.3593 N   0  0  0  0  0  0  0  0  0  0  0  0
    5.3136   -1.2647   -1.0253 H   0  0  0  0  0  0  0  0  0  0  0  0
    5.9456   -1.1342   -2.6660 H   0  0  0  0  0  0  0  0  0  0  0  0
    4.3388   -0.4912   -2.2892 H   0  0  0  0  0  0  0  0  0  0  0  0
    6.9864    0.5540   -1.1471 H   0  0  0  0  0  0  0  0  0  0  0  0
    5.1930    1.7767   -3.3109 H   0  0  0  0  0  0  0  0  0  0  0  0
    6.7772    1.0250   -3.5709 H   0  0  0  0  0  0  0  0  0  0  0  0
    6.6530    2.5163   -2.6293 H   0  0  0  0  0  0  0  0  0  0  0  0
    5.5726    2.5410   -0.4393 H   0  0  0  0  0  0  0  0  0  0  0  0
    4.1294    1.6716   -0.9106 H   0  0  0  0  0  0  0  0  0  0  0  0
    4.0526   -1.2661    4.4163 H   0  0  0  0  0  0  0  0  0  0  0  0
    1.8350   -1.9241    3.5679 H   0  0  0  0  0  0  0  0  0  0  0  0
    1.2054   -3.4346    0.9283 H   0  0  0  0  0  0  0  0  0  0  0  0
   -1.0326   -3.9784   -0.0157 H   0  0  0  0  0  0  0  0  0  0  0  0
   -2.5376    0.8393    0.8911 H   0  0  0  0  0  0  0  0  0  0  0  0
   -3.5824   -0.9098   -1.2804 H   0  0  0  0  0  0  0  0  0  0  0  0
   -4.5524   -1.9616    0.4940 H   0  0  0  0  0  0  0  0  0  0  0  0
   -4.1938   -0.6840    1.6398 H   0  0  0  0  0  0  0  0  0  0  0  0
   -6.1675    0.5505    1.1029 H   0  0  0  0  0  0  0  0  0  0  0  0
   -6.6578   -1.1332    1.1795 H   0  0  0  0  0  0  0  0  0  0  0  0
   -7.5607   -0.1560   -0.7540 H   0  0  0  0  0  0  0  0  0  0  0  0
   -5.6431    0.1010   -2.5569 H   0  0  0  0  0  0  0  0  0  0  0  0
   -7.6432    1.5736   -2.3613 H   0  0  0  0  0  0  0  0  0  0  0  0
   -6.8961    2.4231   -1.0007 H   0  0  0  0  0  0  0  0  0  0  0  0
   -5.8741    2.2359   -3.6486 H   0  0  0  0  0  0  0  0  0  0  0  0
   -3.8468    1.4641   -1.8260 H   0  0  0  0  0  0  0  0  0  0  0  0
   -4.5743    1.7867   -0.2600 H   0  0  0  0  0  0  0  0  0  0  0  0
   -0.0706    0.6831    1.0628 H   0  0  0  0  0  0  0  0  0  0  0  0
    2.6286    0.1390   -0.1409 H   0  0  0  0  0  0  0  0  0  0  0  0
  1  2  1  0
  2  3  1  0
  2  4  1  0
  4  5  1  0
  5  6  2  0
  6  7  1  0
  7  8  2  0
  8  9  1  0
  9 10  2  0
 10 11  1  0
 11 12  1  0
 12 13  2  0
 13 14  1  0
 14 15  2  0
 15 16  1  0
 16 17  1  0
 17 18  1  0
 18 19  1  0
 19 20  1  0
 20 21  1  0
 21 22  1  0
 22 23  1  0
 23 24  1  0
 22 25  1  0
 16 26  2  0
 11 27  2  0
 27 28  1  0
 28  5  1  0
 28  8  1  0
 26 12  1  0
 25 18  1  0
  1 29  1  0
  1 30  1  0
  1 31  1  0
  2 32  1  0
  3 33  1  0
  3 34  1  0
  3 35  1  0
  4 36  1  0
  4 37  1  0
  9 38  1  0
 10 39  1  0
 13 40  1  0
 14 41  1  0
 17 42  1  0
 18 43  1  0
 19 44  1  0
 19 45  1  0
 20 46  1  0
 20 47  1  0
 21 48  1  0
 22 49  1  0
 23 50  1  0
 23 51  1  0
 24 52  1  0
 25 53  1  0
 25 54  1  0
 26 55  1  0
 27 56  1  0
M  END
$$$$
