
     RDKit          3D

 41 44  0  0  0  0  0  0  0  0999 V2000
    1.9869   -0.9023   -0.3598 C   0  0  0  0  0  0  0  0  0  0  0  0
    1.5151   -0.4605    1.0058 C   0  0  0  0  0  0  0  0  0  0  0  0
    2.1616   -0.9672    2.1636 C   0  0  0  0  0  0  0  0  0  0  0  0
    3.2614   -2.0040    2.0877 C   0  0  0  0  0  0  0  0  0  0  0  0
    2.7787   -3.2380    1.5756 O   0  0  0  0  0  0  0  0  0  0  0  0
    1.7810   -0.5016    3.4358 C   0  0  0  0  0  0  0  0  0  0  0  0
    0.7760    0.4495    3.5815 C   0  0  0  0  0  0  0  0  0  0  0  0
    0.1164    0.9350    2.4585 C   0  0  0  0  0  0  0  0  0  0  0  0
    0.4644    0.4726    1.1783 C   0  0  0  0  0  0  0  0  0  0  0  0
   -0.3094    0.9571    0.0830 N   0  0  0  0  0  0  0  0  0  0  0  0
   -0.5691    2.2989   -0.1946 C   0  0  0  0  0  0  0  0  0  0  0  0
   -0.0984    3.4790    0.3984 C   0  0  0  0  0  0  0  0  0  0  0  0
   -0.5542    4.6610   -0.1623 C   0  0  0  0  0  0  0  0  0  0  0  0
   -1.3901    4.7396   -1.2170 N   0  0  0  0  0  0  0  0  0  0  0  0
   -1.8205    3.5945   -1.7968 C   0  0  0  0  0  0  0  0  0  0  0  0
   -1.4150    2.3453   -1.3082 C   0  0  0  0  0  0  0  0  0  0  0  0
   -1.6809    1.0040   -1.7036 C   0  0  0  0  0  0  0  0  0  0  0  0
   -2.4481    0.4024   -2.7169 C   0  0  0  0  0  0  0  0  0  0  0  0
   -2.4924   -0.9900   -2.7684 C   0  0  0  0  0  0  0  0  0  0  0  0
   -1.7897   -1.7287   -1.8211 C   0  0  0  0  0  0  0  0  0  0  0  0
   -1.8429   -3.2423   -1.8646 C   0  0  0  0  0  0  0  0  0  0  0  0
   -1.1520   -3.8156   -0.7540 O   0  0  0  0  0  0  0  0  0  0  0  0
   -1.0334   -1.1861   -0.8326 N   0  0  0  0  0  0  0  0  0  0  0  0
   -0.9976    0.1666   -0.8282 C   0  0  0  0  0  0  0  0  0  0  0  0
    3.0796   -0.9502   -0.4002 H   0  0  0  0  0  0  0  0  0  0  0  0
    1.7086   -0.1935   -1.1449 H   0  0  0  0  0  0  0  0  0  0  0  0
    1.5805   -1.8875   -0.6051 H   0  0  0  0  0  0  0  0  0  0  0  0
    3.6798   -2.2051    3.0799 H   0  0  0  0  0  0  0  0  0  0  0  0
    4.0887   -1.6513    1.4643 H   0  0  0  0  0  0  0  0  0  0  0  0
    1.8067   -3.2160    1.6114 H   0  0  0  0  0  0  0  0  0  0  0  0
    2.2716   -0.8834    4.3299 H   0  0  0  0  0  0  0  0  0  0  0  0
    0.4921    0.7939    4.5728 H   0  0  0  0  0  0  0  0  0  0  0  0
   -0.7027    1.6372    2.6001 H   0  0  0  0  0  0  0  0  0  0  0  0
    0.5897    3.4823    1.2348 H   0  0  0  0  0  0  0  0  0  0  0  0
   -0.2369    5.6196    0.2410 H   0  0  0  0  0  0  0  0  0  0  0  0
   -2.4821    3.7087   -2.6485 H   0  0  0  0  0  0  0  0  0  0  0  0
   -3.0001    1.0005   -3.4356 H   0  0  0  0  0  0  0  0  0  0  0  0
   -3.0796   -1.4860   -3.5360 H   0  0  0  0  0  0  0  0  0  0  0  0
   -2.8815   -3.5850   -1.8294 H   0  0  0  0  0  0  0  0  0  0  0  0
   -1.3702   -3.6049   -2.7824 H   0  0  0  0  0  0  0  0  0  0  0  0
   -0.7920   -3.0486   -0.2616 H   0  0  0  0  0  0  0  0  0  0  0  0
  1  2  1  0
  2  3  2  0
  3  4  1  0
  4  5  1  0
  3  6  1  0
  6  7  2  0
  7  8  1  0
  8  9  2  0
  9 10  1  0
 10 11  1  0
 11 12  2  0
 12 13  1  0
 13 14  2  0
 14 15  1  0
 15 16  2  0
 16 17  1  0
 17 18  2  0
 18 19  1  0
 19 20  2  0
 20 21  1  0
 21 22  1  0
 20 23  1  0
 23 24  2  0
  9  2  1  0
 24 10  1  0
 16 11  1  0
 24 17  1  0
  1 25  1  0
  1 26  1  0
  1 27  1  0
  4 28  1  0
  4 29  1  0
  5 30  1  0
  6 31  1  0
  7 32  1  0
  8 33  1  0
 12 34  1  0
 13 35  1  0
 15 36  1  0
 18 37  1  0
 19 38  1  0
 21 39  1  0
 21 40  1  0
 22 41  1  0
M  END
$$$$
