
     RDKit          3D

 47 49  0  0  0  0  0  0  0  0999 V2000
   -6.5561   -1.5544   -1.1490 C   0  0  0  0  0  0  0  0  0  0  0  0
   -5.8330   -0.2360   -0.8927 C   0  0  0  0  0  0  0  0  0  0  0  0
   -5.8968    0.6632   -2.1261 C   0  0  0  0  0  0  0  0  0  0  0  0
   -4.4515   -0.4965   -0.5104 N   0  0  0  0  0  0  0  0  0  0  0  0
   -3.7172    0.4423    0.1895 C   0  0  0  0  0  0  0  0  0  0  0  0
   -4.1995    1.4942    0.5877 O   0  0  0  0  0  0  0  0  0  0  0  0
   -2.4235    0.0158    0.3615 N   0  0  0  0  0  0  0  0  0  0  0  0
   -1.3570    0.6802    1.0017 C   0  0  0  0  0  0  0  0  0  0  0  0
   -1.4346    1.9792    1.5010 C   0  0  0  0  0  0  0  0  0  0  0  0
   -0.3246    2.5590    2.1147 C   0  0  0  0  0  0  0  0  0  0  0  0
    0.8726    1.8505    2.2164 C   0  0  0  0  0  0  0  0  0  0  0  0
    0.9836    0.5444    1.7095 C   0  0  0  0  0  0  0  0  0  0  0  0
    2.2794   -0.1525    1.8005 C   0  0  0  0  0  0  0  0  0  0  0  0
    2.5469   -0.9172    2.9412 C   0  0  0  0  0  0  0  0  0  0  0  0
    3.7504   -1.5845    3.0232 C   0  0  0  0  0  0  0  0  0  0  0  0
    4.6924   -1.5463    2.0606 N   0  0  0  0  0  0  0  0  0  0  0  0
    4.4559   -0.8105    0.9640 C   0  0  0  0  0  0  0  0  0  0  0  0
    5.4359   -0.7739   -0.0173 C   0  0  0  0  0  0  0  0  0  0  0  0
    5.2706   -0.0335   -1.1928 C   0  0  0  0  0  0  0  0  0  0  0  0
    6.3104    0.0116   -2.2474 C   0  0  0  0  0  0  0  0  0  0  0  0
    6.2297    0.6220   -3.2971 O   0  0  0  0  0  0  0  0  0  0  0  0
    7.4004   -0.7106   -1.9386 O   0  0  0  0  0  0  0  0  0  0  0  0
    4.0955    0.6890   -1.3911 C   0  0  0  0  0  0  0  0  0  0  0  0
    3.0983    0.6651   -0.4170 C   0  0  0  0  0  0  0  0  0  0  0  0
    3.2581   -0.0834    0.7736 C   0  0  0  0  0  0  0  0  0  0  0  0
   -0.1575   -0.0608    1.1330 C   0  0  0  0  0  0  0  0  0  0  0  0
   -0.0707   -1.3229    0.4606 N   0  0  0  0  0  0  0  0  0  0  0  0
   -7.6065   -1.3816   -1.4055 H   0  0  0  0  0  0  0  0  0  0  0  0
   -6.0905   -2.1113   -1.9698 H   0  0  0  0  0  0  0  0  0  0  0  0
   -6.5250   -2.1923   -0.2589 H   0  0  0  0  0  0  0  0  0  0  0  0
   -6.3261    0.2781   -0.0589 H   0  0  0  0  0  0  0  0  0  0  0  0
   -5.3914    0.1991   -2.9804 H   0  0  0  0  0  0  0  0  0  0  0  0
   -5.4090    1.6257   -1.9397 H   0  0  0  0  0  0  0  0  0  0  0  0
   -6.9353    0.8625   -2.4102 H   0  0  0  0  0  0  0  0  0  0  0  0
   -3.9152   -1.0901   -1.1247 H   0  0  0  0  0  0  0  0  0  0  0  0
   -2.2146   -0.9525    0.1491 H   0  0  0  0  0  0  0  0  0  0  0  0
   -2.3460    2.5641    1.4247 H   0  0  0  0  0  0  0  0  0  0  0  0
   -0.3935    3.5715    2.5056 H   0  0  0  0  0  0  0  0  0  0  0  0
    1.7313    2.3305    2.6830 H   0  0  0  0  0  0  0  0  0  0  0  0
    1.8267   -0.9920    3.7506 H   0  0  0  0  0  0  0  0  0  0  0  0
    3.9986   -2.1891    3.8911 H   0  0  0  0  0  0  0  0  0  0  0  0
    6.3497   -1.3406    0.1489 H   0  0  0  0  0  0  0  0  0  0  0  0
    7.9952   -0.5895   -2.7083 H   0  0  0  0  0  0  0  0  0  0  0  0
    3.9517    1.2742   -2.2978 H   0  0  0  0  0  0  0  0  0  0  0  0
    2.1932    1.2438   -0.5934 H   0  0  0  0  0  0  0  0  0  0  0  0
    0.1813   -1.1489   -0.5130 H   0  0  0  0  0  0  0  0  0  0  0  0
    0.6671   -1.8949    0.8711 H   0  0  0  0  0  0  0  0  0  0  0  0
  1  2  1  0
  2  3  1  0
  2  4  1  0
  4  5  1  0
  5  6  2  0
  5  7  1  0
  7  8  1  0
  8  9  2  0
  9 10  1  0
 10 11  2  0
 11 12  1  0
 12 13  1  0
 13 14  2  0
 14 15  1  0
 15 16  2  0
 16 17  1  0
 17 18  2  0
 18 19  1  0
 19 20  1  0
 20 21  2  0
 20 22  1  0
 19 23  2  0
 23 24  1  0
 24 25  2  0
 12 26  2  0
 26 27  1  0
 26  8  1  0
 25 13  1  0
 25 17  1  0
  1 28  1  0
  1 29  1  0
  1 30  1  0
  2 31  1  0
  3 32  1  0
  3 33  1  0
  3 34  1  0
  4 35  1  0
  7 36  1  0
  9 37  1  0
 10 38  1  0
 11 39  1  0
 14 40  1  0
 15 41  1  0
 18 42  1  0
 22 43  1  0
 23 44  1  0
 24 45  1  0
 27 46  1  0
 27 47  1  0
M  END
$$$$
