
     RDKit          3D

 76 81  0  0  0  0  0  0  0  0999 V2000
   -6.4533   -3.1698   -0.3531 C   0  0  0  0  0  0  0  0  0  0  0  0
   -5.3229   -2.3193   -0.2086 O   0  0  0  0  0  0  0  0  0  0  0  0
   -5.5268   -0.9626   -0.3084 C   0  0  0  0  0  0  0  0  0  0  0  0
   -6.7282   -0.4120   -0.7857 C   0  0  0  0  0  0  0  0  0  0  0  0
   -6.9265    0.9662   -0.7878 C   0  0  0  0  0  0  0  0  0  0  0  0
   -5.9238    1.8028   -0.3239 C   0  0  0  0  0  0  0  0  0  0  0  0
   -6.2158    3.1417   -0.2824 O   0  0  0  0  0  0  0  0  0  0  0  0
   -4.6880    1.2803    0.0877 C   0  0  0  0  0  0  0  0  0  0  0  0
   -3.6677    2.2610    0.5201 C   0  0  0  0  0  0  0  0  0  0  0  0
   -4.0329    3.1159    1.3308 O   0  0  0  0  0  0  0  0  0  0  0  0
   -2.3007    2.3364   -0.0616 C   0  0  0  0  0  0  0  0  0  0  0  0
   -1.9422    1.6898   -1.2483 C   0  0  0  0  0  0  0  0  0  0  0  0
   -0.6608    1.8601   -1.7857 C   0  0  0  0  0  0  0  0  0  0  0  0
    0.2772    2.6955   -1.1618 C   0  0  0  0  0  0  0  0  0  0  0  0
    1.6443    2.9164   -1.7773 C   0  0  0  0  0  0  0  0  0  0  0  0
    2.7224    2.0147   -1.3443 N   0  0  0  0  0  0  0  0  0  0  0  0
    2.4846    0.6141   -1.6725 C   0  0  0  0  0  0  0  0  0  0  0  0
    3.8053   -0.1600   -1.6556 C   0  0  0  0  0  0  0  0  0  0  0  0
    4.7042    0.2411   -0.4752 C   0  0  2  0  0  0  0  0  0  0  0  0
    5.4713   -0.8773    0.0575 N   0  0  0  0  0  0  0  0  0  0  0  0
    6.8367   -0.9769    0.0368 C   0  0  0  0  0  0  0  0  0  0  0  0
    7.6493   -0.0720   -0.4704 O   0  0  0  0  0  0  0  0  0  0  0  0
    7.2911   -2.0732    0.5815 N   0  0  0  0  0  0  0  0  0  0  0  0
    6.1632   -2.7238    0.9997 C   0  0  0  0  0  0  0  0  0  0  0  0
    6.1565   -3.9108    1.6445 N   0  0  0  0  0  0  0  0  0  0  0  0
    4.9272   -4.3711    1.9583 C   0  0  0  0  0  0  0  0  0  0  0  0
    3.7268   -3.7369    1.6632 C   0  0  0  0  0  0  0  0  0  0  0  0
    3.7389   -2.5110    1.0000 C   0  0  0  0  0  0  0  0  0  0  0  0
    5.0036   -2.0137    0.6784 C   0  0  0  0  0  0  0  0  0  0  0  0
    3.9191    0.9883    0.6079 C   0  0  0  0  0  0  0  0  0  0  0  0
    3.2062    2.2305    0.0304 C   0  0  1  0  0  0  0  0  0  0  0  0
    4.1521    3.4396    0.0634 C   0  0  0  0  0  0  0  0  0  0  0  0
   -0.0944    3.3533    0.0190 C   0  0  0  0  0  0  0  0  0  0  0  0
   -1.3675    3.1706    0.5656 C   0  0  0  0  0  0  0  0  0  0  0  0
   -4.4619   -0.1189    0.1165 C   0  0  0  0  0  0  0  0  0  0  0  0
   -3.2347   -0.6043    0.6208 N   0  0  0  0  0  0  0  0  0  0  0  0
   -2.5566   -1.7068   -0.1007 C   0  0  0  0  0  0  0  0  0  0  0  0
   -2.3946   -2.9525    0.7855 C   0  0  0  0  0  0  0  0  0  0  0  0
   -1.6533   -2.6926    1.9882 O   0  0  0  0  0  0  0  0  0  0  0  0
   -1.9275   -1.3967    2.5506 C   0  0  0  0  0  0  0  0  0  0  0  0
   -3.2589   -0.7791    2.0910 C   0  0  0  0  0  0  0  0  0  0  0  0
   -6.8156   -3.1675   -1.3864 H   0  0  0  0  0  0  0  0  0  0  0  0
   -6.1328   -4.1898   -0.1208 H   0  0  0  0  0  0  0  0  0  0  0  0
   -7.2477   -2.8990    0.3500 H   0  0  0  0  0  0  0  0  0  0  0  0
   -7.5413   -1.0339   -1.1479 H   0  0  0  0  0  0  0  0  0  0  0  0
   -7.8701    1.3846   -1.1274 H   0  0  0  0  0  0  0  0  0  0  0  0
   -5.5946    3.5584    0.3568 H   0  0  0  0  0  0  0  0  0  0  0  0
   -2.6471    1.0545   -1.7760 H   0  0  0  0  0  0  0  0  0  0  0  0
   -0.4067    1.3503   -2.7135 H   0  0  0  0  0  0  0  0  0  0  0  0
    1.5489    2.8461   -2.8699 H   0  0  0  0  0  0  0  0  0  0  0  0
    1.9367    3.9609   -1.6152 H   0  0  0  0  0  0  0  0  0  0  0  0
    2.0589    0.5145   -2.6780 H   0  0  0  0  0  0  0  0  0  0  0  0
    1.7690    0.1591   -0.9766 H   0  0  0  0  0  0  0  0  0  0  0  0
    3.5831   -1.2337   -1.6644 H   0  0  0  0  0  0  0  0  0  0  0  0
    4.3517    0.0348   -2.5886 H   0  0  0  0  0  0  0  0  0  0  0  0
    5.4460    0.9473   -0.8698 H   0  0  0  0  0  0  0  0  0  0  0  0
    8.5184   -0.4921   -0.3264 H   0  0  0  0  0  0  0  0  0  0  0  0
    4.9280   -5.3256    2.4819 H   0  0  0  0  0  0  0  0  0  0  0  0
    2.7866   -4.1940    1.9602 H   0  0  0  0  0  0  0  0  0  0  0  0
    2.8222   -1.9887    0.7567 H   0  0  0  0  0  0  0  0  0  0  0  0
    4.5812    1.2714    1.4363 H   0  0  0  0  0  0  0  0  0  0  0  0
    3.1598    0.3264    1.0435 H   0  0  0  0  0  0  0  0  0  0  0  0
    2.3751    2.4381    0.7140 H   0  0  0  0  0  0  0  0  0  0  0  0
    5.0054    3.3035   -0.6098 H   0  0  0  0  0  0  0  0  0  0  0  0
    4.5449    3.5970    1.0748 H   0  0  0  0  0  0  0  0  0  0  0  0
    3.6422    4.3632   -0.2270 H   0  0  0  0  0  0  0  0  0  0  0  0
    0.5983    4.0301    0.5157 H   0  0  0  0  0  0  0  0  0  0  0  0
   -1.6328    3.7028    1.4776 H   0  0  0  0  0  0  0  0  0  0  0  0
   -1.5540   -1.3399   -0.3570 H   0  0  0  0  0  0  0  0  0  0  0  0
   -3.0412   -1.9592   -1.0508 H   0  0  0  0  0  0  0  0  0  0  0  0
   -1.8576   -3.7332    0.2357 H   0  0  0  0  0  0  0  0  0  0  0  0
   -3.3640   -3.3707    1.0779 H   0  0  0  0  0  0  0  0  0  0  0  0
   -1.9148   -1.5032    3.6402 H   0  0  0  0  0  0  0  0  0  0  0  0
   -1.0940   -0.7405    2.2750 H   0  0  0  0  0  0  0  0  0  0  0  0
   -4.0873   -1.4378    2.3832 H   0  0  0  0  0  0  0  0  0  0  0  0
   -3.3960    0.1884    2.5874 H   0  0  0  0  0  0  0  0  0  0  0  0
  1  2  1  0
  2  3  1  0
  3  4  2  0
  4  5  1  0
  5  6  2  0
  6  7  1  0
  6  8  1  0
  8  9  1  0
  9 10  2  0
  9 11  1  0
 11 12  2  0
 12 13  1  0
 13 14  2  0
 14 15  1  0
 15 16  1  0
 16 17  1  0
 17 18  1  0
 18 19  1  0
 19 20  1  0
 20 21  1  0
 21 22  1  0
 21 23  2  0
 23 24  1  0
 24 25  2  0
 25 26  1  0
 26 27  2  0
 27 28  1  0
 28 29  2  0
 19 30  1  0
 30 31  1  0
 31 32  1  0
 14 33  1  0
 33 34  2  0
  8 35  2  0
 35 36  1  0
 36 37  1  0
 37 38  1  0
 38 39  1  0
 39 40  1  0
 40 41  1  0
 35  3  1  0
 41 36  1  0
 34 11  1  0
 31 16  1  0
 29 20  1  0
 29 24  1  0
  1 42  1  0
  1 43  1  0
  1 44  1  0
  4 45  1  0
  5 46  1  0
  7 47  1  0
 12 48  1  0
 13 49  1  0
 15 50  1  0
 15 51  1  0
 17 52  1  0
 17 53  1  0
 18 54  1  0
 18 55  1  0
 19 56  1  6
 22 57  1  0
 26 58  1  0
 27 59  1  0
 28 60  1  0
 30 61  1  0
 30 62  1  0
 31 63  1  1
 32 64  1  0
 32 65  1  0
 32 66  1  0
 33 67  1  0
 34 68  1  0
 37 69  1  0
 37 70  1  0
 38 71  1  0
 38 72  1  0
 40 73  1  0
 40 74  1  0
 41 75  1  0
 41 76  1  0
M  END
$$$$
