
     RDKit          3D

 74 80  0  0  0  0  0  0  0  0999 V2000
    4.2983    0.6878    2.0400 C   0  0  0  0  0  0  0  0  0  0  0  0
    4.0128    1.6304    0.8679 C   0  0  2  0  0  0  0  0  0  0  0  0
    2.5117    1.5331    0.5029 C   0  0  0  0  0  0  0  0  0  0  0  0
    2.2902    2.0390   -0.8479 N   0  0  0  0  0  0  0  0  0  0  0  0
    0.8991    2.4224   -1.1398 C   0  0  0  0  0  0  0  0  0  0  0  0
   -0.1549    1.3469   -0.9656 C   0  0  0  0  0  0  0  0  0  0  0  0
   -0.4805    0.4790   -2.0137 C   0  0  0  0  0  0  0  0  0  0  0  0
   -1.4290   -0.5324   -1.8352 C   0  0  0  0  0  0  0  0  0  0  0  0
   -2.1022   -0.6905   -0.6139 C   0  0  0  0  0  0  0  0  0  0  0  0
   -3.0896   -1.7696   -0.4438 C   0  0  0  0  0  0  0  0  0  0  0  0
   -2.5988   -3.0105   -0.7200 N   0  0  0  0  0  0  0  0  0  0  0  0
   -3.3949   -4.0659   -0.5445 C   0  0  0  0  0  0  0  0  0  0  0  0
   -2.9035   -5.2812   -0.8124 N   0  0  0  0  0  0  0  0  0  0  0  0
   -3.7018   -6.3527   -0.6283 C   0  0  0  0  0  0  0  0  0  0  0  0
   -5.0025   -6.2664   -0.1785 C   0  0  0  0  0  0  0  0  0  0  0  0
   -5.5064   -5.0004    0.0944 C   0  0  0  0  0  0  0  0  0  0  0  0
   -4.7178   -3.8742   -0.0817 C   0  0  0  0  0  0  0  0  0  0  0  0
   -5.2303   -2.6554    0.1849 N   0  0  0  0  0  0  0  0  0  0  0  0
   -4.4121   -1.5877   -0.0153 C   0  0  0  0  0  0  0  0  0  0  0  0
   -5.0592   -0.2862    0.2286 C   0  0  0  0  0  0  0  0  0  0  0  0
   -5.7265   -0.0438    1.4448 C   0  0  0  0  0  0  0  0  0  0  0  0
   -6.3592    1.1774    1.6940 C   0  0  0  0  0  0  0  0  0  0  0  0
   -6.3488    2.1675    0.7105 C   0  0  0  0  0  0  0  0  0  0  0  0
   -7.1580    3.7150    1.0194 S   0  0  0  0  0  0  0  0  0  0  0  0
   -8.7584    3.3338    0.6641 N   0  0  0  0  0  0  0  0  0  0  0  0
   -6.7071    4.6744    0.0381 O   0  0  0  0  0  0  0  0  0  0  0  0
   -7.1137    3.9722    2.4409 O   0  0  0  0  0  0  0  0  0  0  0  0
   -5.6946    1.9573   -0.5035 C   0  0  0  0  0  0  0  0  0  0  0  0
   -5.0607    0.7339   -0.7408 C   0  0  0  0  0  0  0  0  0  0  0  0
   -1.7804    0.1900    0.4305 C   0  0  0  0  0  0  0  0  0  0  0  0
   -0.8237    1.1960    0.2564 C   0  0  0  0  0  0  0  0  0  0  0  0
    2.8920    1.1848   -1.8778 C   0  0  0  0  0  0  0  0  0  0  0  0
    4.1994    0.5248   -1.4151 C   0  0  0  0  0  0  0  0  0  0  0  0
    4.9065    1.4127   -0.3851 C   0  0  0  0  0  0  0  0  0  0  0  0
    6.2951    1.0785   -0.1022 N   0  0  0  0  0  0  0  0  0  0  0  0
    7.3118    2.0022    0.0525 C   0  0  0  0  0  0  0  0  0  0  0  0
    7.1718    3.3187    0.0795 O   0  0  0  0  0  0  0  0  0  0  0  0
    8.4841    1.4388    0.1739 N   0  0  0  0  0  0  0  0  0  0  0  0
    8.2347    0.1004    0.1536 C   0  0  0  0  0  0  0  0  0  0  0  0
    9.1808   -0.8570    0.2790 N   0  0  0  0  0  0  0  0  0  0  0  0
    8.7127   -2.1186    0.2572 C   0  0  0  0  0  0  0  0  0  0  0  0
    7.3801   -2.4803    0.1269 C   0  0  0  0  0  0  0  0  0  0  0  0
    6.4096   -1.4881   -0.0022 C   0  0  0  0  0  0  0  0  0  0  0  0
    6.8737   -0.1695    0.0045 C   0  0  0  0  0  0  0  0  0  0  0  0
    3.6088    0.8831    2.8709 H   0  0  0  0  0  0  0  0  0  0  0  0
    4.1742   -0.3603    1.7480 H   0  0  0  0  0  0  0  0  0  0  0  0
    5.3134    0.8231    2.4256 H   0  0  0  0  0  0  0  0  0  0  0  0
    4.2088    2.6501    1.2264 H   0  0  0  0  0  0  0  0  0  0  0  0
    1.9587    2.1317    1.2381 H   0  0  0  0  0  0  0  0  0  0  0  0
    2.1509    0.4998    0.5949 H   0  0  0  0  0  0  0  0  0  0  0  0
    0.8359    2.8252   -2.1602 H   0  0  0  0  0  0  0  0  0  0  0  0
    0.6341    3.2759   -0.5009 H   0  0  0  0  0  0  0  0  0  0  0  0
    0.0113    0.5722   -2.9791 H   0  0  0  0  0  0  0  0  0  0  0  0
   -1.6367   -1.2126   -2.6597 H   0  0  0  0  0  0  0  0  0  0  0  0
   -3.2492   -7.3134   -0.8598 H   0  0  0  0  0  0  0  0  0  0  0  0
   -5.6089   -7.1555   -0.0433 H   0  0  0  0  0  0  0  0  0  0  0  0
   -6.5276   -4.8859    0.4483 H   0  0  0  0  0  0  0  0  0  0  0  0
   -5.7519   -0.8183    2.2109 H   0  0  0  0  0  0  0  0  0  0  0  0
   -6.8527    1.3434    2.6495 H   0  0  0  0  0  0  0  0  0  0  0  0
   -8.8685    2.4269    0.2118 H   0  0  0  0  0  0  0  0  0  0  0  0
   -9.3191    3.4110    1.5142 H   0  0  0  0  0  0  0  0  0  0  0  0
   -5.6741    2.7312   -1.2686 H   0  0  0  0  0  0  0  0  0  0  0  0
   -4.5692    0.5845   -1.7012 H   0  0  0  0  0  0  0  0  0  0  0  0
   -2.2634    0.0937    1.4011 H   0  0  0  0  0  0  0  0  0  0  0  0
   -0.6006    1.8608    1.0880 H   0  0  0  0  0  0  0  0  0  0  0  0
    3.0966    1.8034   -2.7608 H   0  0  0  0  0  0  0  0  0  0  0  0
    2.2249    0.3791   -2.1982 H   0  0  0  0  0  0  0  0  0  0  0  0
    3.9525   -0.4474   -0.9754 H   0  0  0  0  0  0  0  0  0  0  0  0
    4.8410    0.3361   -2.2841 H   0  0  0  0  0  0  0  0  0  0  0  0
    4.9731    2.3893   -0.8902 H   0  0  0  0  0  0  0  0  0  0  0  0
    6.2429    3.5495    0.2231 H   0  0  0  0  0  0  0  0  0  0  0  0
    9.4807   -2.8821    0.3556 H   0  0  0  0  0  0  0  0  0  0  0  0
    7.1007   -3.5294    0.1275 H   0  0  0  0  0  0  0  0  0  0  0  0
    5.3638   -1.7518   -0.0877 H   0  0  0  0  0  0  0  0  0  0  0  0
  1  2  1  0
  2  3  1  0
  3  4  1  0
  4  5  1  0
  5  6  1  0
  6  7  2  0
  7  8  1  0
  8  9  2  0
  9 10  1  0
 10 11  2  0
 11 12  1  0
 12 13  2  0
 13 14  1  0
 14 15  2  0
 15 16  1  0
 16 17  2  0
 17 18  1  0
 18 19  2  0
 19 20  1  0
 20 21  2  0
 21 22  1  0
 22 23  2  0
 23 24  1  0
 24 25  1  0
 24 26  2  0
 24 27  2  0
 23 28  1  0
 28 29  2  0
  9 30  1  0
 30 31  2  0
  4 32  1  0
 32 33  1  0
 33 34  1  0
 34 35  1  0
 35 36  1  0
 36 37  1  0
 36 38  2  0
 38 39  1  0
 39 40  2  0
 40 41  1  0
 41 42  2  0
 42 43  1  0
 43 44  2  0
 34  2  1  0
 44 35  1  0
 31  6  1  0
 44 39  1  0
 19 10  1  0
 29 20  1  0
 17 12  1  0
  1 45  1  0
  1 46  1  0
  1 47  1  0
  2 48  1  1
  3 49  1  0
  3 50  1  0
  5 51  1  0
  5 52  1  0
  7 53  1  0
  8 54  1  0
 14 55  1  0
 15 56  1  0
 16 57  1  0
 21 58  1  0
 22 59  1  0
 25 60  1  0
 25 61  1  0
 28 62  1  0
 29 63  1  0
 30 64  1  0
 31 65  1  0
 32 66  1  0
 32 67  1  0
 33 68  1  0
 33 69  1  0
 34 70  1  0
 37 71  1  0
 41 72  1  0
 42 73  1  0
 43 74  1  0
M  END
$$$$
