
     RDKit          3D

 77 81  0  0  0  0  0  0  0  0999 V2000
  -10.1399    3.8945   -0.9636 C   0  0  0  0  0  0  0  0  0  0  0  0
   -9.1151    3.1450   -0.3231 O   0  0  0  0  0  0  0  0  0  0  0  0
   -9.3191    1.7998   -0.1723 C   0  0  0  0  0  0  0  0  0  0  0  0
  -10.4231    1.0909   -0.6502 C   0  0  0  0  0  0  0  0  0  0  0  0
  -10.5258   -0.2834   -0.4187 C   0  0  0  0  0  0  0  0  0  0  0  0
   -9.5227   -0.9514    0.2790 C   0  0  0  0  0  0  0  0  0  0  0  0
   -9.7169   -2.2911    0.4875 O   0  0  0  0  0  0  0  0  0  0  0  0
   -8.3886   -0.2662    0.7317 C   0  0  0  0  0  0  0  0  0  0  0  0
   -7.3280   -1.0103    1.4470 C   0  0  0  0  0  0  0  0  0  0  0  0
   -7.6570   -2.0165    2.0778 O   0  0  0  0  0  0  0  0  0  0  0  0
   -5.8941   -0.6385    1.3905 C   0  0  0  0  0  0  0  0  0  0  0  0
   -5.3043   -0.1633    0.2130 C   0  0  0  0  0  0  0  0  0  0  0  0
   -3.9417    0.1532    0.1923 C   0  0  0  0  0  0  0  0  0  0  0  0
   -3.1572   -0.0265    1.3405 C   0  0  0  0  0  0  0  0  0  0  0  0
   -1.7024    0.3001    1.3606 C   0  0  0  0  0  0  0  0  0  0  0  0
   -1.1345    0.5374    2.4200 O   0  0  0  0  0  0  0  0  0  0  0  0
   -1.0614    0.2798    0.1402 N   0  0  0  0  0  0  0  0  0  0  0  0
    0.3986    0.3358    0.0377 C   0  0  2  0  0  0  0  0  0  0  0  0
    0.8013    1.0076   -1.2894 C   0  0  0  0  0  0  0  0  0  0  0  0
    1.0458    0.0873   -2.4854 C   0  0  0  0  0  0  0  0  0  0  0  0
   -0.0614   -0.9243   -2.7839 C   0  0  0  0  0  0  0  0  0  0  0  0
   -0.5014   -1.7691   -1.6690 N   0  0  0  0  0  0  0  0  0  0  0  0
    0.6017   -2.1502   -0.7681 C   0  0  0  0  0  0  0  0  0  0  0  0
    1.0339   -1.0661    0.2750 C   0  0  0  0  0  0  0  0  0  0  0  0
    2.4913   -0.9738    0.3821 N   0  0  0  0  0  0  0  0  0  0  0  0
    3.2832   -2.0170    0.8106 C   0  0  0  0  0  0  0  0  0  0  0  0
    2.8636   -3.1365    1.0758 O   0  0  0  0  0  0  0  0  0  0  0  0
    4.7310   -1.6840    0.9134 C   0  0  0  0  0  0  0  0  0  0  0  0
    5.6393   -2.6353    1.3310 C   0  0  0  0  0  0  0  0  0  0  0  0
    6.9666   -2.3702    1.4087 N   0  0  0  0  0  0  0  0  0  0  0  0
    7.3590   -1.1282    1.0567 C   0  0  0  0  0  0  0  0  0  0  0  0
    8.7102   -0.7928    1.1037 C   0  0  0  0  0  0  0  0  0  0  0  0
    9.2026    0.4795    0.7553 C   0  0  0  0  0  0  0  0  0  0  0  0
   10.5860    0.7323    0.8060 N   0  0  0  0  0  0  0  0  0  0  0  0
   11.2628    0.3059    2.0359 C   0  0  0  0  0  0  0  0  0  0  0  0
   11.0893    1.9850    0.2401 C   0  0  0  0  0  0  0  0  0  0  0  0
    8.2362    1.4076    0.3289 C   0  0  0  0  0  0  0  0  0  0  0  0
    8.5798    2.6556   -0.0260 F   0  0  0  0  0  0  0  0  0  0  0  0
    6.8775    1.0976    0.2748 C   0  0  0  0  0  0  0  0  0  0  0  0
    6.4212   -0.1555    0.6314 C   0  0  0  0  0  0  0  0  0  0  0  0
    5.1026   -0.4217    0.5573 N   0  0  0  0  0  0  0  0  0  0  0  0
   -3.7494   -0.5127    2.5126 C   0  0  0  0  0  0  0  0  0  0  0  0
   -5.1107   -0.8291    2.5347 C   0  0  0  0  0  0  0  0  0  0  0  0
   -8.3126    1.1121    0.5220 C   0  0  0  0  0  0  0  0  0  0  0  0
   -7.2745    1.8121    1.0072 F   0  0  0  0  0  0  0  0  0  0  0  0
  -11.0823    3.8306   -0.4092 H   0  0  0  0  0  0  0  0  0  0  0  0
  -10.2696    3.5770   -2.0031 H   0  0  0  0  0  0  0  0  0  0  0  0
   -9.8296    4.9437   -0.9730 H   0  0  0  0  0  0  0  0  0  0  0  0
  -11.2267    1.5753   -1.1953 H   0  0  0  0  0  0  0  0  0  0  0  0
  -11.3946   -0.8338   -0.7731 H   0  0  0  0  0  0  0  0  0  0  0  0
   -9.0676   -2.5867    1.1668 H   0  0  0  0  0  0  0  0  0  0  0  0
   -5.8872   -0.0311   -0.6947 H   0  0  0  0  0  0  0  0  0  0  0  0
   -3.5123    0.5565   -0.7212 H   0  0  0  0  0  0  0  0  0  0  0  0
   -1.4814   -0.3016   -0.5812 H   0  0  0  0  0  0  0  0  0  0  0  0
    0.7384    1.0000    0.8439 H   0  0  0  0  0  0  0  0  0  0  0  0
    0.0525    1.7620   -1.5637 H   0  0  0  0  0  0  0  0  0  0  0  0
    1.7327    1.5644   -1.1199 H   0  0  0  0  0  0  0  0  0  0  0  0
    1.1903    0.7131   -3.3753 H   0  0  0  0  0  0  0  0  0  0  0  0
    1.9988   -0.4383   -2.3515 H   0  0  0  0  0  0  0  0  0  0  0  0
   -0.9411   -0.3912   -3.1616 H   0  0  0  0  0  0  0  0  0  0  0  0
    0.2814   -1.5716   -3.6004 H   0  0  0  0  0  0  0  0  0  0  0  0
   -0.9100   -2.6234   -2.0564 H   0  0  0  0  0  0  0  0  0  0  0  0
    1.4536   -2.5161   -1.3557 H   0  0  0  0  0  0  0  0  0  0  0  0
    0.2576   -3.0211   -0.1955 H   0  0  0  0  0  0  0  0  0  0  0  0
    0.6892   -1.4206    1.2565 H   0  0  0  0  0  0  0  0  0  0  0  0
    2.9590   -0.0783    0.2646 H   0  0  0  0  0  0  0  0  0  0  0  0
    5.3357   -3.6384    1.6111 H   0  0  0  0  0  0  0  0  0  0  0  0
    9.3994   -1.5808    1.3977 H   0  0  0  0  0  0  0  0  0  0  0  0
   12.3142    0.6153    2.0288 H   0  0  0  0  0  0  0  0  0  0  0  0
   10.7906    0.7521    2.9184 H   0  0  0  0  0  0  0  0  0  0  0  0
   11.2690   -0.7830    2.1414 H   0  0  0  0  0  0  0  0  0  0  0  0
   10.7995    2.8456    0.8523 H   0  0  0  0  0  0  0  0  0  0  0  0
   10.7441    2.1233   -0.7899 H   0  0  0  0  0  0  0  0  0  0  0  0
   12.1838    1.9643    0.1934 H   0  0  0  0  0  0  0  0  0  0  0  0
    6.1776    1.8589   -0.0553 H   0  0  0  0  0  0  0  0  0  0  0  0
   -3.1499   -0.6524    3.4105 H   0  0  0  0  0  0  0  0  0  0  0  0
   -5.5568   -1.2189    3.4476 H   0  0  0  0  0  0  0  0  0  0  0  0
  1  2  1  0
  2  3  1  0
  3  4  2  0
  4  5  1  0
  5  6  2  0
  6  7  1  0
  6  8  1  0
  8  9  1  0
  9 10  2  0
  9 11  1  0
 11 12  2  0
 12 13  1  0
 13 14  2  0
 14 15  1  0
 15 16  2  0
 15 17  1  0
 17 18  1  0
 18 19  1  0
 19 20  1  0
 20 21  1  0
 21 22  1  0
 22 23  1  0
 23 24  1  0
 24 25  1  0
 25 26  1  0
 26 27  2  0
 26 28  1  0
 28 29  2  0
 29 30  1  0
 30 31  2  0
 31 32  1  0
 32 33  2  0
 33 34  1  0
 34 35  1  0
 34 36  1  0
 33 37  1  0
 37 38  1  0
 37 39  2  0
 39 40  1  0
 40 41  2  0
 14 42  1  0
 42 43  2  0
  8 44  2  0
 44 45  1  0
 44  3  1  0
 43 11  1  0
 24 18  1  0
 41 28  1  0
 40 31  1  0
  1 46  1  0
  1 47  1  0
  1 48  1  0
  4 49  1  0
  5 50  1  0
  7 51  1  0
 12 52  1  0
 13 53  1  0
 17 54  1  0
 18 55  1  1
 19 56  1  0
 19 57  1  0
 20 58  1  0
 20 59  1  0
 21 60  1  0
 21 61  1  0
 22 62  1  0
 23 63  1  0
 23 64  1  0
 24 65  1  0
 25 66  1  0
 29 67  1  0
 32 68  1  0
 35 69  1  0
 35 70  1  0
 35 71  1  0
 36 72  1  0
 36 73  1  0
 36 74  1  0
 39 75  1  0
 42 76  1  0
 43 77  1  0
M  END
$$$$
