
     RDKit          3D

 56 59  0  0  0  0  0  0  0  0999 V2000
    6.0741    0.9981   -1.7781 C   0  0  0  0  0  0  0  0  0  0  0  0
    5.2824    1.7762   -0.8325 N   0  0  0  0  0  0  0  0  0  0  0  0
    5.8977    2.9604   -0.2442 C   0  0  0  0  0  0  0  0  0  0  0  0
    4.4613    1.0328    0.0244 C   0  0  0  0  0  0  0  0  0  0  0  0
    3.0761    1.0852   -0.1978 C   0  0  0  0  0  0  0  0  0  0  0  0
    2.1705    0.3766    0.6091 C   0  0  0  0  0  0  0  0  0  0  0  0
    0.6870    0.4439    0.3405 C   0  0  0  0  0  0  0  0  0  0  0  0
    0.2145   -0.8219   -0.2332 N   0  0  0  0  0  0  0  0  0  0  0  0
   -1.2310   -0.7843   -0.5560 C   0  0  0  0  0  0  0  0  0  0  0  0
   -1.5254   -1.9090   -1.5632 C   0  0  0  0  0  0  0  0  0  0  0  0
   -1.3484   -3.3115   -0.9766 C   0  0  2  0  0  0  0  0  0  0  0  0
   -2.0363   -4.2259   -1.8304 O   0  0  0  0  0  0  0  0  0  0  0  0
   -1.8807   -3.4457    0.4534 C   0  0  0  0  0  0  0  0  0  0  0  0
   -2.8276   -2.3069    0.8216 C   0  0  0  0  0  0  0  0  0  0  0  0
   -2.1137   -0.9455    0.7245 C   0  0  2  0  0  0  0  0  0  0  0  0
   -3.0433    0.1632    0.9102 N   0  0  0  0  0  0  0  0  0  0  0  0
   -3.0856    0.9884    2.0056 C   0  0  0  0  0  0  0  0  0  0  0  0
   -4.0236    1.9056    1.8983 N   0  0  0  0  0  0  0  0  0  0  0  0
   -4.6130    1.6633    0.6740 C   0  0  0  0  0  0  0  0  0  0  0  0
   -5.6667    2.2895   -0.0125 C   0  0  0  0  0  0  0  0  0  0  0  0
   -6.3551    3.3878    0.4881 N   0  0  0  0  0  0  0  0  0  0  0  0
   -6.0459    1.7891   -1.2104 N   0  0  0  0  0  0  0  0  0  0  0  0
   -5.3731    0.7260   -1.7019 C   0  0  0  0  0  0  0  0  0  0  0  0
   -4.3449    0.0558   -1.1446 N   0  0  0  0  0  0  0  0  0  0  0  0
   -4.0218    0.5775    0.0486 C   0  0  0  0  0  0  0  0  0  0  0  0
    2.6677   -0.4103    1.6557 C   0  0  0  0  0  0  0  0  0  0  0  0
    4.0389   -0.4772    1.8952 C   0  0  0  0  0  0  0  0  0  0  0  0
    4.9189    0.2383    1.0874 C   0  0  0  0  0  0  0  0  0  0  0  0
    6.2489    0.1226    1.3846 O   0  0  0  0  0  0  0  0  0  0  0  0
    6.9371    0.5208   -1.3043 H   0  0  0  0  0  0  0  0  0  0  0  0
    5.4659    0.2239   -2.2595 H   0  0  0  0  0  0  0  0  0  0  0  0
    6.4502    1.6524   -2.5717 H   0  0  0  0  0  0  0  0  0  0  0  0
    5.1706    3.5343    0.3410 H   0  0  0  0  0  0  0  0  0  0  0  0
    6.7472    2.7116    0.3988 H   0  0  0  0  0  0  0  0  0  0  0  0
    6.2639    3.6192   -1.0386 H   0  0  0  0  0  0  0  0  0  0  0  0
    2.7062    1.6948   -1.0199 H   0  0  0  0  0  0  0  0  0  0  0  0
    0.4735    1.2751   -0.3428 H   0  0  0  0  0  0  0  0  0  0  0  0
    0.1782    0.6693    1.2845 H   0  0  0  0  0  0  0  0  0  0  0  0
    0.7499   -0.9747   -1.0910 H   0  0  0  0  0  0  0  0  0  0  0  0
   -1.4412    0.1649   -1.0652 H   0  0  0  0  0  0  0  0  0  0  0  0
   -2.5482   -1.7981   -1.9460 H   0  0  0  0  0  0  0  0  0  0  0  0
   -0.8914   -1.8089   -2.4545 H   0  0  0  0  0  0  0  0  0  0  0  0
   -0.2896   -3.5946   -0.9977 H   0  0  0  0  0  0  0  0  0  0  0  0
   -1.8397   -5.1250   -1.5152 H   0  0  0  0  0  0  0  0  0  0  0  0
   -1.0339   -3.4265    1.1512 H   0  0  0  0  0  0  0  0  0  0  0  0
   -2.3893   -4.4057    0.5968 H   0  0  0  0  0  0  0  0  0  0  0  0
   -3.1986   -2.4534    1.8436 H   0  0  0  0  0  0  0  0  0  0  0  0
   -3.7101   -2.3415    0.1712 H   0  0  0  0  0  0  0  0  0  0  0  0
   -1.4527   -0.8973    1.6019 H   0  0  0  0  0  0  0  0  0  0  0  0
   -2.4144    0.8769    2.8483 H   0  0  0  0  0  0  0  0  0  0  0  0
   -7.2765    3.4752    0.0809 H   0  0  0  0  0  0  0  0  0  0  0  0
   -6.2698    3.4896    1.4930 H   0  0  0  0  0  0  0  0  0  0  0  0
   -5.7056    0.3645   -2.6709 H   0  0  0  0  0  0  0  0  0  0  0  0
    1.9863   -0.9800    2.2826 H   0  0  0  0  0  0  0  0  0  0  0  0
    4.4234   -1.0875    2.7067 H   0  0  0  0  0  0  0  0  0  0  0  0
    6.7065    0.6788    0.7372 H   0  0  0  0  0  0  0  0  0  0  0  0
  1  2  1  0
  2  3  1  0
  2  4  1  0
  4  5  2  0
  5  6  1  0
  6  7  1  0
  7  8  1  0
  8  9  1  0
  9 10  1  0
 10 11  1  0
 11 12  1  0
 11 13  1  0
 13 14  1  0
 14 15  1  0
 15 16  1  0
 16 17  1  0
 17 18  2  0
 18 19  1  0
 19 20  2  0
 20 21  1  0
 20 22  1  0
 22 23  2  0
 23 24  1  0
 24 25  2  0
  6 26  2  0
 26 27  1  0
 27 28  2  0
 28 29  1  0
 28  4  1  0
 15  9  1  0
 25 16  1  0
 25 19  1  0
  1 30  1  0
  1 31  1  0
  1 32  1  0
  3 33  1  0
  3 34  1  0
  3 35  1  0
  5 36  1  0
  7 37  1  0
  7 38  1  0
  8 39  1  0
  9 40  1  0
 10 41  1  0
 10 42  1  0
 11 43  1  1
 12 44  1  0
 13 45  1  0
 13 46  1  0
 14 47  1  0
 14 48  1  0
 15 49  1  1
 17 50  1  0
 21 51  1  0
 21 52  1  0
 23 53  1  0
 26 54  1  0
 27 55  1  0
 29 56  1  0
M  END
$$$$
