
     RDKit          3D

 45 47  0  0  0  0  0  0  0  0999 V2000
    7.8179    1.1675    0.0140 N   0  0  0  0  0  0  0  0  0  0  0  0
    6.7688    0.8371   -0.8161 C   0  0  0  0  0  0  0  0  0  0  0  0
    7.0064    0.8142   -2.1283 N   0  0  0  0  0  0  0  0  0  0  0  0
    5.9653    0.5028   -2.9166 C   0  0  0  0  0  0  0  0  0  0  0  0
    4.7083    0.2249   -2.4376 C   0  0  0  0  0  0  0  0  0  0  0  0
    4.5522    0.2862   -1.0661 C   0  0  0  0  0  0  0  0  0  0  0  0
    3.2638    0.0194   -0.3935 C   0  0  0  0  0  0  0  0  0  0  0  0
    2.9015    0.7230    0.7680 C   0  0  0  0  0  0  0  0  0  0  0  0
    1.6836    0.4870    1.4166 C   0  0  0  0  0  0  0  0  0  0  0  0
    0.7901   -0.4713    0.9264 C   0  0  0  0  0  0  0  0  0  0  0  0
   -0.4979   -0.6793    1.6605 C   0  0  0  0  0  0  0  0  0  0  0  0
   -0.7729    0.0551    2.6093 O   0  0  0  0  0  0  0  0  0  0  0  0
   -1.4467   -1.7777    1.2260 C   0  0  0  0  0  0  0  0  0  0  0  0
   -2.3147   -1.3465    0.0388 C   0  0  0  0  0  0  0  0  0  0  0  0
   -3.7121   -1.0438    0.3910 N   0  0  0  0  0  0  0  0  0  0  0  0
   -3.8118    0.0812    1.3405 C   0  0  0  0  0  0  0  0  0  0  0  0
   -5.2061    0.7049    1.3581 C   0  0  0  0  0  0  0  0  0  0  0  0
   -5.5671    1.2946   -0.0042 C   0  0  0  0  0  0  0  0  0  0  0  0
   -4.8476    0.5852   -1.1497 C   0  0  0  0  0  0  0  0  0  0  0  0
   -4.5556   -0.8731   -0.8042 C   0  0  0  0  0  0  0  0  0  0  0  0
    1.1357   -1.1881   -0.2228 C   0  0  0  0  0  0  0  0  0  0  0  0
    2.3564   -0.9440   -0.8703 C   0  0  0  0  0  0  0  0  0  0  0  0
    5.5814    0.6091   -0.2508 N   0  0  0  0  0  0  0  0  0  0  0  0
    8.5038    1.7036   -0.4979 H   0  0  0  0  0  0  0  0  0  0  0  0
    7.4659    1.5577    0.8761 H   0  0  0  0  0  0  0  0  0  0  0  0
    6.1784    0.4859   -3.9813 H   0  0  0  0  0  0  0  0  0  0  0  0
    3.8962   -0.0064   -3.1120 H   0  0  0  0  0  0  0  0  0  0  0  0
    3.5761    1.4725    1.1811 H   0  0  0  0  0  0  0  0  0  0  0  0
    1.4434    1.0576    2.3125 H   0  0  0  0  0  0  0  0  0  0  0  0
   -0.8656   -2.6727    0.9758 H   0  0  0  0  0  0  0  0  0  0  0  0
   -2.0501   -2.0796    2.0909 H   0  0  0  0  0  0  0  0  0  0  0  0
   -1.8683   -0.5029   -0.5032 H   0  0  0  0  0  0  0  0  0  0  0  0
   -2.3227   -2.1966   -0.6564 H   0  0  0  0  0  0  0  0  0  0  0  0
   -3.5783   -0.2747    2.3499 H   0  0  0  0  0  0  0  0  0  0  0  0
   -3.0871    0.8677    1.0908 H   0  0  0  0  0  0  0  0  0  0  0  0
   -5.9446   -0.0580    1.6367 H   0  0  0  0  0  0  0  0  0  0  0  0
   -5.2627    1.4866    2.1245 H   0  0  0  0  0  0  0  0  0  0  0  0
   -6.6531    1.2310   -0.1433 H   0  0  0  0  0  0  0  0  0  0  0  0
   -5.3147    2.3616   -0.0319 H   0  0  0  0  0  0  0  0  0  0  0  0
   -5.4565    0.6456   -2.0590 H   0  0  0  0  0  0  0  0  0  0  0  0
   -3.9058    1.1037   -1.3710 H   0  0  0  0  0  0  0  0  0  0  0  0
   -5.5082   -1.3845   -0.6132 H   0  0  0  0  0  0  0  0  0  0  0  0
   -4.1264   -1.3786   -1.6782 H   0  0  0  0  0  0  0  0  0  0  0  0
    0.4831   -1.9471   -0.6427 H   0  0  0  0  0  0  0  0  0  0  0  0
    2.5983   -1.5405   -1.7482 H   0  0  0  0  0  0  0  0  0  0  0  0
  1  2  1  0
  2  3  2  0
  3  4  1  0
  4  5  2  0
  5  6  1  0
  6  7  1  0
  7  8  2  0
  8  9  1  0
  9 10  2  0
 10 11  1  0
 11 12  2  0
 11 13  1  0
 13 14  1  0
 14 15  1  0
 15 16  1  0
 16 17  1  0
 17 18  1  0
 18 19  1  0
 19 20  1  0
 10 21  1  0
 21 22  2  0
  6 23  2  0
 23  2  1  0
 22  7  1  0
 20 15  1  0
  1 24  1  0
  1 25  1  0
  4 26  1  0
  5 27  1  0
  8 28  1  0
  9 29  1  0
 13 30  1  0
 13 31  1  0
 14 32  1  0
 14 33  1  0
 16 34  1  0
 16 35  1  0
 17 36  1  0
 17 37  1  0
 18 38  1  0
 18 39  1  0
 19 40  1  0
 19 41  1  0
 20 42  1  0
 20 43  1  0
 21 44  1  0
 22 45  1  0
M  END
$$$$
