
     RDKit          3D

 40 43  0  0  0  0  0  0  0  0999 V2000
    2.9233   -0.3179    1.9470 O   0  0  0  0  0  0  0  0  0  0  0  0
    3.3628   -0.0700    0.8225 C   0  0  0  0  0  0  0  0  0  0  0  0
    4.8262    0.3046    0.6990 C   0  0  0  0  0  0  0  0  0  0  0  0
    5.4563   -0.1226   -0.6068 C   0  0  0  0  0  0  0  0  0  0  0  0
    6.7847    0.3822   -0.7095 O   0  0  0  0  0  0  0  0  0  0  0  0
    4.6257    0.4062   -1.7547 C   0  0  0  0  0  0  0  0  0  0  0  0
    3.2342   -0.1883   -1.6630 C   0  0  0  0  0  0  0  0  0  0  0  0
    2.5943   -0.0230   -0.3529 N   0  0  0  0  0  0  0  0  0  0  0  0
    1.1514   -0.1162   -0.2956 C   0  0  0  0  0  0  0  0  0  0  0  0
    0.4440    0.3860    0.8084 C   0  0  0  0  0  0  0  0  0  0  0  0
   -0.9585    0.3383    0.8894 C   0  0  0  0  0  0  0  0  0  0  0  0
   -1.6856   -0.2225   -0.1727 C   0  0  0  0  0  0  0  0  0  0  0  0
   -3.0624   -0.4618   -0.4738 C   0  0  0  0  0  0  0  0  0  0  0  0
   -4.2242   -0.1404    0.3385 C   0  0  0  0  0  0  0  0  0  0  0  0
   -5.1483   -1.1252    0.6959 C   0  0  0  0  0  0  0  0  0  0  0  0
   -4.9729   -2.4032    0.3257 F   0  0  0  0  0  0  0  0  0  0  0  0
   -6.2670   -0.8195    1.4740 C   0  0  0  0  0  0  0  0  0  0  0  0
   -6.4779    0.4879    1.9088 C   0  0  0  0  0  0  0  0  0  0  0  0
   -5.5643    1.4819    1.5632 C   0  0  0  0  0  0  0  0  0  0  0  0
   -4.4497    1.1636    0.7852 C   0  0  0  0  0  0  0  0  0  0  0  0
   -3.5985    2.1525    0.4712 F   0  0  0  0  0  0  0  0  0  0  0  0
   -3.1974   -1.0523   -1.6727 N   0  0  0  0  0  0  0  0  0  0  0  0
   -1.9393   -1.1986   -2.1122 N   0  0  0  0  0  0  0  0  0  0  0  0
   -0.9836   -0.7124   -1.2641 C   0  0  0  0  0  0  0  0  0  0  0  0
    0.4164   -0.6714   -1.3623 C   0  0  0  0  0  0  0  0  0  0  0  0
    5.3782   -0.1541    1.5285 H   0  0  0  0  0  0  0  0  0  0  0  0
    4.9077    1.3898    0.8385 H   0  0  0  0  0  0  0  0  0  0  0  0
    5.5180   -1.2159   -0.6586 H   0  0  0  0  0  0  0  0  0  0  0  0
    6.7604    1.3506   -0.6164 H   0  0  0  0  0  0  0  0  0  0  0  0
    5.0892    0.1541   -2.7156 H   0  0  0  0  0  0  0  0  0  0  0  0
    4.5794    1.5023   -1.7170 H   0  0  0  0  0  0  0  0  0  0  0  0
    2.6234    0.2964   -2.4333 H   0  0  0  0  0  0  0  0  0  0  0  0
    3.2796   -1.2644   -1.8723 H   0  0  0  0  0  0  0  0  0  0  0  0
    0.9649    0.8582    1.6384 H   0  0  0  0  0  0  0  0  0  0  0  0
   -1.4629    0.7394    1.7637 H   0  0  0  0  0  0  0  0  0  0  0  0
   -6.9640   -1.6104    1.7359 H   0  0  0  0  0  0  0  0  0  0  0  0
   -7.3484    0.7296    2.5136 H   0  0  0  0  0  0  0  0  0  0  0  0
   -5.7111    2.5071    1.8907 H   0  0  0  0  0  0  0  0  0  0  0  0
   -1.7988   -1.6428   -3.0119 H   0  0  0  0  0  0  0  0  0  0  0  0
    0.8943   -1.0977   -2.2359 H   0  0  0  0  0  0  0  0  0  0  0  0
  1  2  2  0
  2  3  1  0
  3  4  1  0
  4  5  1  0
  4  6  1  0
  6  7  1  0
  7  8  1  0
  8  9  1  0
  9 10  2  0
 10 11  1  0
 11 12  2  0
 12 13  1  0
 13 14  1  0
 14 15  2  0
 15 16  1  0
 15 17  1  0
 17 18  2  0
 18 19  1  0
 19 20  2  0
 20 21  1  0
 13 22  2  0
 22 23  1  0
 23 24  1  0
 24 25  2  0
  8  2  1  0
 25  9  1  0
 24 12  1  0
 20 14  1  0
  3 26  1  0
  3 27  1  0
  4 28  1  0
  5 29  1  0
  6 30  1  0
  6 31  1  0
  7 32  1  0
  7 33  1  0
 10 34  1  0
 11 35  1  0
 17 36  1  0
 18 37  1  0
 19 38  1  0
 23 39  1  0
 25 40  1  0
M  END
$$$$
