
     RDKit          3D

 46 48  0  0  0  0  0  0  0  0999 V2000
   -5.6948   -0.8072    1.8781 C   0  0  0  0  0  0  0  0  0  0  0  0
   -5.4068   -0.8509    0.4261 C   0  0  0  0  0  0  0  0  0  0  0  0
   -6.3917   -0.7242   -0.5143 N   0  0  0  0  0  0  0  0  0  0  0  0
   -5.9438   -0.7881   -1.7770 N   0  0  0  0  0  0  0  0  0  0  0  0
   -4.6288   -0.9579   -1.6337 C   0  0  0  0  0  0  0  0  0  0  0  0
   -4.2240   -0.9910   -0.2777 C   0  0  0  0  0  0  0  0  0  0  0  0
   -2.8374   -1.1636    0.2503 C   0  0  0  0  0  0  0  0  0  0  0  0
   -1.8597   -0.0509   -0.1523 C   0  0  0  0  0  0  0  0  0  0  0  0
   -1.8377    1.1768    0.7844 C   0  0  2  0  0  0  0  0  0  0  0  0
   -3.1690    1.7785    0.9193 N   0  0  0  0  0  0  0  0  0  0  0  0
   -0.8113    2.2376    0.3051 C   0  0  0  0  0  0  0  0  0  0  0  0
    0.5690    1.8052    0.4339 N   0  0  0  0  0  0  0  0  0  0  0  0
    1.2702    1.2777   -0.6303 C   0  0  0  0  0  0  0  0  0  0  0  0
    0.7943    1.1382   -1.7508 O   0  0  0  0  0  0  0  0  0  0  0  0
    2.6597    0.8257   -0.3466 C   0  0  0  0  0  0  0  0  0  0  0  0
    3.4505    1.4319    0.6341 C   0  0  0  0  0  0  0  0  0  0  0  0
    4.7494    0.9708    0.8662 C   0  0  0  0  0  0  0  0  0  0  0  0
    5.2786   -0.0940    0.1193 C   0  0  0  0  0  0  0  0  0  0  0  0
    6.5811   -0.5682    0.3430 C   0  0  0  0  0  0  0  0  0  0  0  0
    7.0954   -1.6234   -0.4122 C   0  0  0  0  0  0  0  0  0  0  0  0
    6.3158   -2.2166   -1.4008 C   0  0  0  0  0  0  0  0  0  0  0  0
    5.0194   -1.7567   -1.6366 C   0  0  0  0  0  0  0  0  0  0  0  0
    4.4863   -0.6976   -0.8847 C   0  0  0  0  0  0  0  0  0  0  0  0
    3.1836   -0.2252   -1.1102 C   0  0  0  0  0  0  0  0  0  0  0  0
   -5.4108    0.1638    2.2949 H   0  0  0  0  0  0  0  0  0  0  0  0
   -5.1356   -1.5857    2.4066 H   0  0  0  0  0  0  0  0  0  0  0  0
   -6.7590   -0.9661    2.0809 H   0  0  0  0  0  0  0  0  0  0  0  0
   -7.3865   -0.5949   -0.3651 H   0  0  0  0  0  0  0  0  0  0  0  0
   -4.0125   -1.0464   -2.5197 H   0  0  0  0  0  0  0  0  0  0  0  0
   -2.4579   -2.1129   -0.1514 H   0  0  0  0  0  0  0  0  0  0  0  0
   -2.8458   -1.2799    1.3404 H   0  0  0  0  0  0  0  0  0  0  0  0
   -2.0403    0.2675   -1.1868 H   0  0  0  0  0  0  0  0  0  0  0  0
   -0.8582   -0.4986   -0.1371 H   0  0  0  0  0  0  0  0  0  0  0  0
   -1.5347    0.8388    1.7834 H   0  0  0  0  0  0  0  0  0  0  0  0
   -3.1097    2.7202    1.3010 H   0  0  0  0  0  0  0  0  0  0  0  0
   -3.6073    1.8620   -0.0001 H   0  0  0  0  0  0  0  0  0  0  0  0
   -0.8926    3.1378    0.9256 H   0  0  0  0  0  0  0  0  0  0  0  0
   -1.0156    2.5321   -0.7310 H   0  0  0  0  0  0  0  0  0  0  0  0
    0.9560    1.7426    1.3654 H   0  0  0  0  0  0  0  0  0  0  0  0
    3.0868    2.2804    1.2060 H   0  0  0  0  0  0  0  0  0  0  0  0
    5.3529    1.4566    1.6304 H   0  0  0  0  0  0  0  0  0  0  0  0
    7.2082   -0.1168    1.1086 H   0  0  0  0  0  0  0  0  0  0  0  0
    8.1058   -1.9804   -0.2295 H   0  0  0  0  0  0  0  0  0  0  0  0
    6.7161   -3.0369   -1.9911 H   0  0  0  0  0  0  0  0  0  0  0  0
    4.4264   -2.2319   -2.4154 H   0  0  0  0  0  0  0  0  0  0  0  0
    2.5659   -0.6782   -1.8844 H   0  0  0  0  0  0  0  0  0  0  0  0
  1  2  1  0
  2  3  1  0
  3  4  1  0
  4  5  2  0
  5  6  1  0
  6  7  1  0
  7  8  1  0
  8  9  1  0
  9 10  1  0
  9 11  1  0
 11 12  1  0
 12 13  1  0
 13 14  2  0
 13 15  1  0
 15 16  2  0
 16 17  1  0
 17 18  2  0
 18 19  1  0
 19 20  2  0
 20 21  1  0
 21 22  2  0
 22 23  1  0
 23 24  2  0
  6  2  2  0
 24 15  1  0
 23 18  1  0
  1 25  1  0
  1 26  1  0
  1 27  1  0
  3 28  1  0
  5 29  1  0
  7 30  1  0
  7 31  1  0
  8 32  1  0
  8 33  1  0
  9 34  1  1
 10 35  1  0
 10 36  1  0
 11 37  1  0
 11 38  1  0
 12 39  1  0
 16 40  1  0
 17 41  1  0
 19 42  1  0
 20 43  1  0
 21 44  1  0
 22 45  1  0
 24 46  1  0
M  END
$$$$
