
     RDKit          3D

 52 56  0  0  0  0  0  0  0  0999 V2000
    8.3519    1.2409   -0.5445 N   0  0  0  0  0  0  0  0  0  0  0  0
    7.0250    1.0890   -0.1397 C   0  0  0  0  0  0  0  0  0  0  0  0
    6.2722    2.1863    0.1977 C   0  0  0  0  0  0  0  0  0  0  0  0
    4.9755    1.9249    0.5553 C   0  0  0  0  0  0  0  0  0  0  0  0
    4.4518    0.6882    0.5805 N   0  0  0  0  0  0  0  0  0  0  0  0
    5.2600   -0.3196    0.2346 C   0  0  0  0  0  0  0  0  0  0  0  0
    4.8107   -1.6246    0.2263 N   0  0  0  0  0  0  0  0  0  0  0  0
    3.3981   -1.9451    0.0278 C   0  0  0  0  0  0  0  0  0  0  0  0
    2.7898   -1.3100   -1.2274 C   0  0  0  0  0  0  0  0  0  0  0  0
    1.5583   -0.4676   -0.9045 C   0  0  0  0  0  0  0  0  0  0  0  0
    0.5952   -1.2676   -0.1411 N   0  0  0  0  0  0  0  0  0  0  0  0
   -0.7581   -0.9092   -0.1199 C   0  0  0  0  0  0  0  0  0  0  0  0
   -1.2128    0.3450   -0.5590 C   0  0  0  0  0  0  0  0  0  0  0  0
   -2.5720    0.7078   -0.5469 C   0  0  0  0  0  0  0  0  0  0  0  0
   -3.5215   -0.2170   -0.0834 C   0  0  0  0  0  0  0  0  0  0  0  0
   -4.9411   -0.2544    0.0820 C   0  0  0  0  0  0  0  0  0  0  0  0
   -5.9044    0.7945   -0.2110 C   0  0  0  0  0  0  0  0  0  0  0  0
   -6.9923    0.5586   -1.0553 C   0  0  0  0  0  0  0  0  0  0  0  0
   -7.1590   -0.6327   -1.6503 F   0  0  0  0  0  0  0  0  0  0  0  0
   -7.9238    1.5616   -1.3332 C   0  0  0  0  0  0  0  0  0  0  0  0
   -7.7778    2.8263   -0.7657 C   0  0  0  0  0  0  0  0  0  0  0  0
   -6.6956    3.0798    0.0749 C   0  0  0  0  0  0  0  0  0  0  0  0
   -5.7712    2.0687    0.3453 C   0  0  0  0  0  0  0  0  0  0  0  0
   -4.7482    2.3562    1.1646 F   0  0  0  0  0  0  0  0  0  0  0  0
   -5.3386   -1.4392    0.5756 N   0  0  0  0  0  0  0  0  0  0  0  0
   -4.2008   -2.1379    0.7089 N   0  0  0  0  0  0  0  0  0  0  0  0
   -3.0747   -1.4596    0.3385 C   0  0  0  0  0  0  0  0  0  0  0  0
   -1.7231   -1.8312    0.3325 C   0  0  0  0  0  0  0  0  0  0  0  0
    1.1005   -2.0039    1.0294 C   0  0  0  0  0  0  0  0  0  0  0  0
    2.5748   -1.7174    1.2949 C   0  0  0  0  0  0  0  0  0  0  0  0
    6.5357   -0.1563   -0.1396 N   0  0  0  0  0  0  0  0  0  0  0  0
    8.8982    1.7487    0.1421 H   0  0  0  0  0  0  0  0  0  0  0  0
    8.7264    0.3081   -0.7025 H   0  0  0  0  0  0  0  0  0  0  0  0
    6.6683    3.1908    0.1727 H   0  0  0  0  0  0  0  0  0  0  0  0
    4.2968    2.7234    0.8386 H   0  0  0  0  0  0  0  0  0  0  0  0
    5.4618   -2.1460   -0.3508 H   0  0  0  0  0  0  0  0  0  0  0  0
    3.3845   -3.0304   -0.1455 H   0  0  0  0  0  0  0  0  0  0  0  0
    2.4851   -2.1181   -1.9064 H   0  0  0  0  0  0  0  0  0  0  0  0
    3.5127   -0.7105   -1.7917 H   0  0  0  0  0  0  0  0  0  0  0  0
    1.1275   -0.1509   -1.8623 H   0  0  0  0  0  0  0  0  0  0  0  0
    1.8326    0.4356   -0.3475 H   0  0  0  0  0  0  0  0  0  0  0  0
   -0.5089    1.0971   -0.9046 H   0  0  0  0  0  0  0  0  0  0  0  0
   -2.8726    1.6941   -0.8866 H   0  0  0  0  0  0  0  0  0  0  0  0
   -8.7570    1.3435   -1.9949 H   0  0  0  0  0  0  0  0  0  0  0  0
   -8.5021    3.6087   -0.9777 H   0  0  0  0  0  0  0  0  0  0  0  0
   -6.5643    4.0578    0.5289 H   0  0  0  0  0  0  0  0  0  0  0  0
   -4.2599   -3.0845    1.0649 H   0  0  0  0  0  0  0  0  0  0  0  0
   -1.4341   -2.8275    0.6494 H   0  0  0  0  0  0  0  0  0  0  0  0
    0.5415   -1.7395    1.9363 H   0  0  0  0  0  0  0  0  0  0  0  0
    0.9644   -3.0787    0.8574 H   0  0  0  0  0  0  0  0  0  0  0  0
    2.6761   -0.6912    1.6647 H   0  0  0  0  0  0  0  0  0  0  0  0
    2.9389   -2.3648    2.1020 H   0  0  0  0  0  0  0  0  0  0  0  0
  1  2  1  0
  2  3  2  0
  3  4  1  0
  4  5  2  0
  5  6  1  0
  6  7  1  0
  7  8  1  0
  8  9  1  0
  9 10  1  0
 10 11  1  0
 11 12  1  0
 12 13  2  0
 13 14  1  0
 14 15  2  0
 15 16  1  0
 16 17  1  0
 17 18  2  0
 18 19  1  0
 18 20  1  0
 20 21  2  0
 21 22  1  0
 22 23  2  0
 23 24  1  0
 16 25  2  0
 25 26  1  0
 26 27  1  0
 27 28  2  0
 11 29  1  0
 29 30  1  0
  6 31  2  0
 31  2  1  0
 30  8  1  0
 28 12  1  0
 27 15  1  0
 23 17  1  0
  1 32  1  0
  1 33  1  0
  3 34  1  0
  4 35  1  0
  7 36  1  0
  8 37  1  0
  9 38  1  0
  9 39  1  0
 10 40  1  0
 10 41  1  0
 13 42  1  0
 14 43  1  0
 20 44  1  0
 21 45  1  0
 22 46  1  0
 26 47  1  0
 28 48  1  0
 29 49  1  0
 29 50  1  0
 30 51  1  0
 30 52  1  0
M  END
$$$$
