
     RDKit          3D

 45 47  0  0  0  0  0  0  0  0999 V2000
   -5.7782    1.0300    1.0293 C   0  0  0  0  0  0  0  0  0  0  0  0
   -5.2070    0.9596   -0.3841 C   0  0  0  0  0  0  0  0  0  0  0  0
   -5.4694   -0.3865   -1.0548 C   0  0  0  0  0  0  0  0  0  0  0  0
   -3.8035    1.3517   -0.4380 N   0  0  0  0  0  0  0  0  0  0  0  0
   -2.8050    0.5247    0.0311 C   0  0  0  0  0  0  0  0  0  0  0  0
   -3.0072   -0.2848    1.0775 N   0  0  0  0  0  0  0  0  0  0  0  0
   -1.9706   -1.0444    1.4847 C   0  0  0  0  0  0  0  0  0  0  0  0
   -0.7362   -1.0346    0.8800 C   0  0  0  0  0  0  0  0  0  0  0  0
   -0.6393   -0.1701   -0.1952 C   0  0  0  0  0  0  0  0  0  0  0  0
   -1.6474    0.6048   -0.6285 N   0  0  0  0  0  0  0  0  0  0  0  0
    0.5399   -0.0198   -0.9335 N   0  0  0  0  0  0  0  0  0  0  0  0
    1.5766   -0.7312   -0.5993 C   0  0  0  0  0  0  0  0  0  0  0  0
    2.9034   -0.5645   -1.3341 C   0  0  1  0  0  0  0  0  0  0  0  0
    2.6994   -0.2024   -2.8089 C   0  0  0  0  0  0  0  0  0  0  0  0
    3.7898    0.4432   -0.6176 C   0  0  0  0  0  0  0  0  0  0  0  0
    3.4440    1.8041   -0.5498 C   0  0  0  0  0  0  0  0  0  0  0  0
    4.2627    2.7109    0.1253 C   0  0  0  0  0  0  0  0  0  0  0  0
    5.4249    2.2610    0.7382 C   0  0  0  0  0  0  0  0  0  0  0  0
    6.2088    3.1316    1.3876 F   0  0  0  0  0  0  0  0  0  0  0  0
    5.7830    0.9198    0.6921 C   0  0  0  0  0  0  0  0  0  0  0  0
    4.9662    0.0108    0.0176 C   0  0  0  0  0  0  0  0  0  0  0  0
    1.5652   -1.7312    0.5605 C   0  0  0  0  0  0  0  0  0  0  0  0
    2.5691   -2.3930    0.7895 O   0  0  0  0  0  0  0  0  0  0  0  0
    0.3739   -1.8219    1.2728 N   0  0  0  0  0  0  0  0  0  0  0  0
    0.2724   -2.7330    2.3969 C   0  0  0  0  0  0  0  0  0  0  0  0
   -5.4065    0.2270    1.6721 H   0  0  0  0  0  0  0  0  0  0  0  0
   -6.8699    0.9420    1.0025 H   0  0  0  0  0  0  0  0  0  0  0  0
   -5.5295    1.9847    1.5053 H   0  0  0  0  0  0  0  0  0  0  0  0
   -5.7476    1.7144   -0.9699 H   0  0  0  0  0  0  0  0  0  0  0  0
   -5.0527   -0.4058   -2.0677 H   0  0  0  0  0  0  0  0  0  0  0  0
   -5.0293   -1.2190   -0.4965 H   0  0  0  0  0  0  0  0  0  0  0  0
   -6.5460   -0.5735   -1.1300 H   0  0  0  0  0  0  0  0  0  0  0  0
   -3.4872    1.6810   -1.3450 H   0  0  0  0  0  0  0  0  0  0  0  0
   -2.1973   -1.6717    2.3397 H   0  0  0  0  0  0  0  0  0  0  0  0
    3.4042   -1.5411   -1.3372 H   0  0  0  0  0  0  0  0  0  0  0  0
    2.1900    0.7585   -2.9395 H   0  0  0  0  0  0  0  0  0  0  0  0
    3.6608   -0.1410   -3.3309 H   0  0  0  0  0  0  0  0  0  0  0  0
    2.0905   -0.9635   -3.3096 H   0  0  0  0  0  0  0  0  0  0  0  0
    2.5299    2.1680   -1.0169 H   0  0  0  0  0  0  0  0  0  0  0  0
    3.9985    3.7621    0.1784 H   0  0  0  0  0  0  0  0  0  0  0  0
    6.6922    0.5891    1.1835 H   0  0  0  0  0  0  0  0  0  0  0  0
    5.2509   -1.0399   -0.0023 H   0  0  0  0  0  0  0  0  0  0  0  0
   -0.4983   -3.4816    2.1881 H   0  0  0  0  0  0  0  0  0  0  0  0
    0.0156   -2.1696    3.2994 H   0  0  0  0  0  0  0  0  0  0  0  0
    1.2164   -3.2548    2.5779 H   0  0  0  0  0  0  0  0  0  0  0  0
  1  2  1  0
  2  3  1  0
  2  4  1  0
  4  5  1  0
  5  6  2  0
  6  7  1  0
  7  8  2  0
  8  9  1  0
  9 10  2  0
  9 11  1  0
 11 12  2  0
 12 13  1  0
 13 14  1  0
 13 15  1  0
 15 16  2  0
 16 17  1  0
 17 18  2  0
 18 19  1  0
 18 20  1  0
 20 21  2  0
 12 22  1  0
 22 23  2  0
 22 24  1  0
 24 25  1  0
 10  5  1  0
 21 15  1  0
 24  8  1  0
  1 26  1  0
  1 27  1  0
  1 28  1  0
  2 29  1  0
  3 30  1  0
  3 31  1  0
  3 32  1  0
  4 33  1  0
  7 34  1  0
 13 35  1  6
 14 36  1  0
 14 37  1  0
 14 38  1  0
 16 39  1  0
 17 40  1  0
 20 41  1  0
 21 42  1  0
 25 43  1  0
 25 44  1  0
 25 45  1  0
M  END
$$$$
