
     RDKit          3D

 50 53  0  0  0  0  0  0  0  0999 V2000
   -6.1334   -1.9837    1.6088 O   0  0  0  0  0  0  0  0  0  0  0  0
   -5.3168   -0.9504    1.0519 C   0  0  0  0  0  0  0  0  0  0  0  0
   -5.3909   -0.9936   -0.4801 C   0  0  0  0  0  0  0  0  0  0  0  0
   -4.9399    0.2151   -1.1862 N   0  0  0  0  0  0  0  0  0  0  0  0
   -3.4746    0.3681   -1.1743 C   0  0  0  0  0  0  0  0  0  0  0  0
   -2.9234    1.0050    0.0837 C   0  0  0  0  0  0  0  0  0  0  0  0
   -3.5329    2.1780    0.5747 C   0  0  0  0  0  0  0  0  0  0  0  0
   -3.0438    2.8309    1.7069 C   0  0  0  0  0  0  0  0  0  0  0  0
   -1.9272    2.3316    2.3670 C   0  0  0  0  0  0  0  0  0  0  0  0
   -1.2970    1.1829    1.8896 C   0  0  0  0  0  0  0  0  0  0  0  0
   -1.7793    0.5165    0.7484 C   0  0  0  0  0  0  0  0  0  0  0  0
   -1.0547   -0.6676    0.2960 C   0  0  0  0  0  0  0  0  0  0  0  0
   -1.6129   -1.8874    0.3371 N   0  0  0  0  0  0  0  0  0  0  0  0
   -0.6473   -2.7049   -0.1103 N   0  0  0  0  0  0  0  0  0  0  0  0
    0.5102   -2.0700   -0.4669 C   0  0  0  0  0  0  0  0  0  0  0  0
    1.7172   -2.5548   -0.9760 C   0  0  0  0  0  0  0  0  0  0  0  0
    2.7232   -1.6158   -1.2325 C   0  0  0  0  0  0  0  0  0  0  0  0
    2.5337   -0.2465   -0.9914 C   0  0  0  0  0  0  0  0  0  0  0  0
    3.6449    0.7407   -1.2755 C   0  0  0  0  0  0  0  0  0  0  0  0
    4.8107    0.6417   -0.3162 C   0  0  0  0  0  0  0  0  0  0  0  0
    4.6610    1.0219    1.0280 C   0  0  0  0  0  0  0  0  0  0  0  0
    5.7359    0.9279    1.9130 C   0  0  0  0  0  0  0  0  0  0  0  0
    6.9600    0.4562    1.4561 C   0  0  0  0  0  0  0  0  0  0  0  0
    7.9916    0.3663    2.3059 F   0  0  0  0  0  0  0  0  0  0  0  0
    7.1306    0.0755    0.1307 C   0  0  0  0  0  0  0  0  0  0  0  0
    6.0570    0.1676   -0.7564 C   0  0  0  0  0  0  0  0  0  0  0  0
    1.3040    0.2052   -0.4768 C   0  0  0  0  0  0  0  0  0  0  0  0
    0.2794   -0.7249   -0.2103 C   0  0  0  0  0  0  0  0  0  0  0  0
   -7.0568   -1.7325    1.4375 H   0  0  0  0  0  0  0  0  0  0  0  0
   -5.6786    0.0058    1.4439 H   0  0  0  0  0  0  0  0  0  0  0  0
   -4.2962   -1.1097    1.4069 H   0  0  0  0  0  0  0  0  0  0  0  0
   -4.8725   -1.8857   -0.8537 H   0  0  0  0  0  0  0  0  0  0  0  0
   -6.4422   -1.1462   -0.7568 H   0  0  0  0  0  0  0  0  0  0  0  0
   -5.2189    0.1148   -2.1621 H   0  0  0  0  0  0  0  0  0  0  0  0
   -3.2090    1.0467   -1.9962 H   0  0  0  0  0  0  0  0  0  0  0  0
   -3.0023   -0.5841   -1.4294 H   0  0  0  0  0  0  0  0  0  0  0  0
   -4.4086    2.5820    0.0689 H   0  0  0  0  0  0  0  0  0  0  0  0
   -3.5397    3.7263    2.0724 H   0  0  0  0  0  0  0  0  0  0  0  0
   -1.5484    2.8320    3.2540 H   0  0  0  0  0  0  0  0  0  0  0  0
   -0.4284    0.7976    2.4201 H   0  0  0  0  0  0  0  0  0  0  0  0
   -0.8432   -3.6983   -0.1502 H   0  0  0  0  0  0  0  0  0  0  0  0
    1.8782   -3.6114   -1.1631 H   0  0  0  0  0  0  0  0  0  0  0  0
    3.6766   -1.9685   -1.6237 H   0  0  0  0  0  0  0  0  0  0  0  0
    3.9855    0.5912   -2.3086 H   0  0  0  0  0  0  0  0  0  0  0  0
    3.2600    1.7687   -1.2483 H   0  0  0  0  0  0  0  0  0  0  0  0
    3.7030    1.3867    1.3925 H   0  0  0  0  0  0  0  0  0  0  0  0
    5.6251    1.2163    2.9532 H   0  0  0  0  0  0  0  0  0  0  0  0
    8.0964   -0.2905   -0.2022 H   0  0  0  0  0  0  0  0  0  0  0  0
    6.1985   -0.1341   -1.7918 H   0  0  0  0  0  0  0  0  0  0  0  0
    1.1365    1.2614   -0.2834 H   0  0  0  0  0  0  0  0  0  0  0  0
  1  2  1  0
  2  3  1  0
  3  4  1  0
  4  5  1  0
  5  6  1  0
  6  7  2  0
  7  8  1  0
  8  9  2  0
  9 10  1  0
 10 11  2  0
 11 12  1  0
 12 13  2  0
 13 14  1  0
 14 15  1  0
 15 16  2  0
 16 17  1  0
 17 18  2  0
 18 19  1  0
 19 20  1  0
 20 21  2  0
 21 22  1  0
 22 23  2  0
 23 24  1  0
 23 25  1  0
 25 26  2  0
 18 27  1  0
 27 28  2  0
 11  6  1  0
 28 12  1  0
 28 15  1  0
 26 20  1  0
  1 29  1  0
  2 30  1  0
  2 31  1  0
  3 32  1  0
  3 33  1  0
  4 34  1  0
  5 35  1  0
  5 36  1  0
  7 37  1  0
  8 38  1  0
  9 39  1  0
 10 40  1  0
 14 41  1  0
 16 42  1  0
 17 43  1  0
 19 44  1  0
 19 45  1  0
 21 46  1  0
 22 47  1  0
 25 48  1  0
 26 49  1  0
 27 50  1  0
M  END
$$$$
