
     RDKit          3D

 64 67  0  0  0  0  0  0  0  0999 V2000
    7.5134   -1.7133   -2.3593 C   0  0  0  0  0  0  0  0  0  0  0  0
    6.3470   -1.4192   -1.6025 O   0  0  0  0  0  0  0  0  0  0  0  0
    6.4044   -1.6363   -0.2516 C   0  0  0  0  0  0  0  0  0  0  0  0
    7.5260   -2.0870    0.4464 C   0  0  0  0  0  0  0  0  0  0  0  0
    7.4574   -2.2811    1.8280 C   0  0  0  0  0  0  0  0  0  0  0  0
    6.2743   -2.0179    2.5155 C   0  0  0  0  0  0  0  0  0  0  0  0
    6.2990   -2.2512    3.8656 O   0  0  0  0  0  0  0  0  0  0  0  0
    5.1440   -1.5402    1.8392 C   0  0  0  0  0  0  0  0  0  0  0  0
    3.9073   -1.2441    2.6034 C   0  0  0  0  0  0  0  0  0  0  0  0
    3.7844   -1.6882    3.7454 O   0  0  0  0  0  0  0  0  0  0  0  0
    2.8430   -0.3810    2.0735 C   0  0  0  0  0  0  0  0  0  0  0  0
    3.0980    0.9630    1.7883 C   0  0  0  0  0  0  0  0  0  0  0  0
    2.0609    1.7693    1.3103 C   0  0  0  0  0  0  0  0  0  0  0  0
    0.7729    1.2408    1.1206 C   0  0  0  0  0  0  0  0  0  0  0  0
   -0.2953    2.1525    0.6204 C   0  0  0  0  0  0  0  0  0  0  0  0
   -0.1521    3.3665    0.7079 O   0  0  0  0  0  0  0  0  0  0  0  0
   -1.4023    1.5613    0.0494 N   0  0  0  0  0  0  0  0  0  0  0  0
   -2.4666    2.3542   -0.5869 C   0  0  2  0  0  0  0  0  0  0  0  0
   -3.3345    3.0536    0.4745 C   0  0  0  0  0  0  0  0  0  0  0  0
   -4.3002    4.1322   -0.0454 C   0  0  0  0  0  0  0  0  0  0  0  0
   -4.2210    4.4563   -1.5386 C   0  0  0  0  0  0  0  0  0  0  0  0
   -4.6772    3.4179   -2.4550 N   0  0  0  0  0  0  0  0  0  0  0  0
   -4.6553    2.0445   -1.9730 C   0  0  0  0  0  0  0  0  0  0  0  0
   -3.2918    1.4538   -1.5460 C   0  0  0  0  0  0  0  0  0  0  0  0
   -3.4958    0.1184   -0.9418 N   0  0  0  0  0  0  0  0  0  0  0  0
   -3.7174   -0.9907   -1.7339 C   0  0  0  0  0  0  0  0  0  0  0  0
   -3.6128   -0.9748   -2.9541 O   0  0  0  0  0  0  0  0  0  0  0  0
   -4.1364   -2.2345   -1.0350 C   0  0  0  0  0  0  0  0  0  0  0  0
   -4.8727   -3.1763   -1.7543 C   0  0  0  0  0  0  0  0  0  0  0  0
   -5.2649   -4.3302   -1.1034 C   0  0  0  0  0  0  0  0  0  0  0  0
   -4.9690   -4.5957    0.1873 N   0  0  0  0  0  0  0  0  0  0  0  0
   -4.2384   -3.6780    0.8539 C   0  0  0  0  0  0  0  0  0  0  0  0
   -3.7993   -2.4912    0.2947 C   0  0  0  0  0  0  0  0  0  0  0  0
    0.5242   -0.1003    1.4345 C   0  0  0  0  0  0  0  0  0  0  0  0
    1.5612   -0.9007    1.9082 C   0  0  0  0  0  0  0  0  0  0  0  0
    1.3005   -2.1865    2.1831 F   0  0  0  0  0  0  0  0  0  0  0  0
    5.2202   -1.3709    0.4535 C   0  0  0  0  0  0  0  0  0  0  0  0
    4.1437   -0.9643   -0.2397 F   0  0  0  0  0  0  0  0  0  0  0  0
    8.3487   -1.0740   -2.0586 H   0  0  0  0  0  0  0  0  0  0  0  0
    7.7777   -2.7729   -2.2818 H   0  0  0  0  0  0  0  0  0  0  0  0
    7.2924   -1.5003   -3.4091 H   0  0  0  0  0  0  0  0  0  0  0  0
    8.4660   -2.3043   -0.0510 H   0  0  0  0  0  0  0  0  0  0  0  0
    8.3275   -2.6433    2.3717 H   0  0  0  0  0  0  0  0  0  0  0  0
    5.3799   -2.1610    4.2083 H   0  0  0  0  0  0  0  0  0  0  0  0
    4.0858    1.3912    1.9391 H   0  0  0  0  0  0  0  0  0  0  0  0
    2.2577    2.8176    1.0867 H   0  0  0  0  0  0  0  0  0  0  0  0
   -1.3546    0.5901   -0.2361 H   0  0  0  0  0  0  0  0  0  0  0  0
   -1.9478    3.1160   -1.1800 H   0  0  0  0  0  0  0  0  0  0  0  0
   -3.9044    2.3047    1.0403 H   0  0  0  0  0  0  0  0  0  0  0  0
   -2.6881    3.5296    1.2225 H   0  0  0  0  0  0  0  0  0  0  0  0
   -5.3287    3.8561    0.2195 H   0  0  0  0  0  0  0  0  0  0  0  0
   -4.1037    5.0578    0.5112 H   0  0  0  0  0  0  0  0  0  0  0  0
   -4.8392    5.3423   -1.7269 H   0  0  0  0  0  0  0  0  0  0  0  0
   -3.1999    4.7566   -1.7993 H   0  0  0  0  0  0  0  0  0  0  0  0
   -4.2059    3.5009   -3.3567 H   0  0  0  0  0  0  0  0  0  0  0  0
   -5.0623    1.4173   -2.7761 H   0  0  0  0  0  0  0  0  0  0  0  0
   -5.3836    1.9335   -1.1593 H   0  0  0  0  0  0  0  0  0  0  0  0
   -2.6858    1.2998   -2.4491 H   0  0  0  0  0  0  0  0  0  0  0  0
   -3.8713    0.1116   -0.0017 H   0  0  0  0  0  0  0  0  0  0  0  0
   -5.1368   -3.0127   -2.7944 H   0  0  0  0  0  0  0  0  0  0  0  0
   -5.8432   -5.0946   -1.6146 H   0  0  0  0  0  0  0  0  0  0  0  0
   -4.0035   -3.9359    1.8839 H   0  0  0  0  0  0  0  0  0  0  0  0
   -3.1948   -1.8150    0.8846 H   0  0  0  0  0  0  0  0  0  0  0  0
   -0.4608   -0.5421    1.3435 H   0  0  0  0  0  0  0  0  0  0  0  0
  1  2  1  0
  2  3  1  0
  3  4  2  0
  4  5  1  0
  5  6  2  0
  6  7  1  0
  6  8  1  0
  8  9  1  0
  9 10  2  0
  9 11  1  0
 11 12  2  0
 12 13  1  0
 13 14  2  0
 14 15  1  0
 15 16  2  0
 15 17  1  0
 17 18  1  0
 18 19  1  0
 19 20  1  0
 20 21  1  0
 21 22  1  0
 22 23  1  0
 23 24  1  0
 24 25  1  0
 25 26  1  0
 26 27  2  0
 26 28  1  0
 28 29  2  0
 29 30  1  0
 30 31  2  0
 31 32  1  0
 32 33  2  0
 14 34  1  0
 34 35  2  0
 35 36  1  0
  8 37  2  0
 37 38  1  0
 37  3  1  0
 35 11  1  0
 24 18  1  0
 33 28  1  0
  1 39  1  0
  1 40  1  0
  1 41  1  0
  4 42  1  0
  5 43  1  0
  7 44  1  0
 12 45  1  0
 13 46  1  0
 17 47  1  0
 18 48  1  6
 19 49  1  0
 19 50  1  0
 20 51  1  0
 20 52  1  0
 21 53  1  0
 21 54  1  0
 22 55  1  0
 23 56  1  0
 23 57  1  0
 24 58  1  0
 25 59  1  0
 29 60  1  0
 30 61  1  0
 32 62  1  0
 33 63  1  0
 34 64  1  0
M  END
$$$$
