
     RDKit          3D

 73 77  0  0  0  0  0  0  0  0999 V2000
   -7.4079    2.7089    3.5309 C   0  0  0  0  0  0  0  0  0  0  0  0
   -8.1497    1.7755    2.6100 C   0  0  0  0  0  0  0  0  0  0  0  0
   -9.3145    1.4567    2.8491 O   0  0  0  0  0  0  0  0  0  0  0  0
   -7.4649    1.3048    1.5039 N   0  0  0  0  0  0  0  0  0  0  0  0
   -6.0648    1.6045    1.1858 C   0  0  0  0  0  0  0  0  0  0  0  0
   -5.4041    0.4588    0.3910 C   0  0  0  0  0  0  0  0  0  0  0  0
   -6.0929    0.0829   -0.8801 N   0  0  0  0  0  0  0  0  0  0  0  0
   -5.8781   -1.3717   -1.1566 C   0  0  1  0  0  0  0  0  0  0  0  0
   -6.5926   -1.8876   -2.4142 C   0  0  0  0  0  0  0  0  0  0  0  0
   -4.3666   -1.6321   -1.3652 C   0  0  0  0  0  0  0  0  0  0  0  0
   -3.7539   -2.5104   -0.7621 O   0  0  0  0  0  0  0  0  0  0  0  0
   -3.7936   -0.8019   -2.3139 N   0  0  0  0  0  0  0  0  0  0  0  0
   -2.4093   -0.8634   -2.6516 C   0  0  0  0  0  0  0  0  0  0  0  0
   -1.7792    0.1869   -3.5174 C   0  0  0  0  0  0  0  0  0  0  0  0
   -1.4207    0.1151   -2.0532 C   0  0  0  0  0  0  0  0  0  0  0  0
   -0.0662   -0.3855   -1.6136 C   0  0  0  0  0  0  0  0  0  0  0  0
    0.0536   -1.3576   -0.6076 C   0  0  0  0  0  0  0  0  0  0  0  0
    1.3062   -1.8167   -0.1760 C   0  0  0  0  0  0  0  0  0  0  0  0
    2.4940   -1.3175   -0.7369 C   0  0  0  0  0  0  0  0  0  0  0  0
    3.8085   -1.7874   -0.2903 C   0  0  0  0  0  0  0  0  0  0  0  0
    4.1211   -3.1370   -0.1438 C   0  0  0  0  0  0  0  0  0  0  0  0
    5.3308   -3.5833    0.2717 N   0  0  0  0  0  0  0  0  0  0  0  0
    6.2292   -2.6099    0.5294 C   0  0  0  0  0  0  0  0  0  0  0  0
    7.4292   -3.1230    0.8973 O   0  0  0  0  0  0  0  0  0  0  0  0
    5.9673   -1.2417    0.4048 C   0  0  0  0  0  0  0  0  0  0  0  0
    6.9364   -0.1521    0.6581 C   0  0  0  0  0  0  0  0  0  0  0  0
    6.8590    1.0495   -0.0690 C   0  0  0  0  0  0  0  0  0  0  0  0
    7.7639    2.0944    0.1408 C   0  0  0  0  0  0  0  0  0  0  0  0
    8.7824    1.9791    1.0947 C   0  0  0  0  0  0  0  0  0  0  0  0
    9.7479    3.1152    1.2864 C   0  0  0  0  0  0  0  0  0  0  0  0
    8.8805    0.7946    1.8468 C   0  0  0  0  0  0  0  0  0  0  0  0
    9.9523    0.6150    2.8889 C   0  0  0  0  0  0  0  0  0  0  0  0
    7.9556   -0.2457    1.6238 C   0  0  0  0  0  0  0  0  0  0  0  0
    4.7310   -0.8330   -0.0074 N   0  0  0  0  0  0  0  0  0  0  0  0
    2.3682   -0.3543   -1.7443 C   0  0  0  0  0  0  0  0  0  0  0  0
    3.4569    0.1431   -2.3519 F   0  0  0  0  0  0  0  0  0  0  0  0
    1.1205    0.1077   -2.1704 C   0  0  0  0  0  0  0  0  0  0  0  0
   -7.5197    0.4821   -0.8407 C   0  0  0  0  0  0  0  0  0  0  0  0
   -8.1703    0.4455    0.5526 C   0  0  0  0  0  0  0  0  0  0  0  0
   -6.9551    3.5295    2.9670 H   0  0  0  0  0  0  0  0  0  0  0  0
   -6.6448    2.1555    4.0855 H   0  0  0  0  0  0  0  0  0  0  0  0
   -8.1134    3.1427    4.2486 H   0  0  0  0  0  0  0  0  0  0  0  0
   -6.0523    2.5331    0.6014 H   0  0  0  0  0  0  0  0  0  0  0  0
   -5.4992    1.7820    2.1059 H   0  0  0  0  0  0  0  0  0  0  0  0
   -5.3605   -0.4041    1.0692 H   0  0  0  0  0  0  0  0  0  0  0  0
   -4.3705    0.7426    0.1594 H   0  0  0  0  0  0  0  0  0  0  0  0
   -6.2082   -1.9753   -0.3013 H   0  0  0  0  0  0  0  0  0  0  0  0
   -6.4710   -1.2013   -3.2602 H   0  0  0  0  0  0  0  0  0  0  0  0
   -7.6631   -2.0308   -2.2387 H   0  0  0  0  0  0  0  0  0  0  0  0
   -6.1888   -2.8587   -2.7233 H   0  0  0  0  0  0  0  0  0  0  0  0
   -4.3431    0.0132   -2.5720 H   0  0  0  0  0  0  0  0  0  0  0  0
   -2.0695   -1.8840   -2.8231 H   0  0  0  0  0  0  0  0  0  0  0  0
   -1.0594   -0.1491   -4.2574 H   0  0  0  0  0  0  0  0  0  0  0  0
   -2.3826    1.0243   -3.8470 H   0  0  0  0  0  0  0  0  0  0  0  0
   -1.8387    0.9032   -1.4292 H   0  0  0  0  0  0  0  0  0  0  0  0
   -0.8462   -1.7546   -0.1377 H   0  0  0  0  0  0  0  0  0  0  0  0
    1.3369   -2.5489    0.6279 H   0  0  0  0  0  0  0  0  0  0  0  0
    3.3981   -3.9145   -0.3712 H   0  0  0  0  0  0  0  0  0  0  0  0
    7.2199   -4.0732    0.8623 H   0  0  0  0  0  0  0  0  0  0  0  0
    6.0800    1.1787   -0.8210 H   0  0  0  0  0  0  0  0  0  0  0  0
    7.6622    3.0008   -0.4534 H   0  0  0  0  0  0  0  0  0  0  0  0
    9.4966    3.9702    0.6489 H   0  0  0  0  0  0  0  0  0  0  0  0
   10.7612    2.7954    1.0262 H   0  0  0  0  0  0  0  0  0  0  0  0
    9.7274    3.4620    2.3241 H   0  0  0  0  0  0  0  0  0  0  0  0
   10.9445    0.6999    2.4321 H   0  0  0  0  0  0  0  0  0  0  0  0
    9.8457    1.3681    3.6768 H   0  0  0  0  0  0  0  0  0  0  0  0
    9.8923   -0.3697    3.3641 H   0  0  0  0  0  0  0  0  0  0  0  0
    8.0364   -1.1458    2.2309 H   0  0  0  0  0  0  0  0  0  0  0  0
    1.0877    0.8679   -2.9472 H   0  0  0  0  0  0  0  0  0  0  0  0
   -8.1365   -0.0756   -1.5508 H   0  0  0  0  0  0  0  0  0  0  0  0
   -7.5575    1.5204   -1.2020 H   0  0  0  0  0  0  0  0  0  0  0  0
   -8.1564   -0.5732    0.9564 H   0  0  0  0  0  0  0  0  0  0  0  0
   -9.2173    0.7605    0.4810 H   0  0  0  0  0  0  0  0  0  0  0  0
  1  2  1  0
  2  3  2  0
  2  4  1  0
  4  5  1  0
  5  6  1  0
  6  7  1  0
  7  8  1  0
  8  9  1  0
  8 10  1  0
 10 11  2  0
 10 12  1  0
 12 13  1  0
 13 14  1  0
 14 15  1  0
 15 16  1  0
 16 17  2  0
 17 18  1  0
 18 19  2  0
 19 20  1  0
 20 21  2  0
 21 22  1  0
 22 23  2  0
 23 24  1  0
 23 25  1  0
 25 26  1  0
 26 27  2  0
 27 28  1  0
 28 29  2  0
 29 30  1  0
 29 31  1  0
 31 32  1  0
 31 33  2  0
 25 34  2  0
 19 35  1  0
 35 36  1  0
 35 37  2  0
  7 38  1  0
 38 39  1  0
 39  4  1  0
 15 13  1  0
 37 16  1  0
 34 20  1  0
 33 26  1  0
  1 40  1  0
  1 41  1  0
  1 42  1  0
  5 43  1  0
  5 44  1  0
  6 45  1  0
  6 46  1  0
  8 47  1  1
  9 48  1  0
  9 49  1  0
  9 50  1  0
 12 51  1  0
 13 52  1  0
 14 53  1  0
 14 54  1  0
 15 55  1  0
 17 56  1  0
 18 57  1  0
 21 58  1  0
 24 59  1  0
 27 60  1  0
 28 61  1  0
 30 62  1  0
 30 63  1  0
 30 64  1  0
 32 65  1  0
 32 66  1  0
 32 67  1  0
 33 68  1  0
 37 69  1  0
 38 70  1  0
 38 71  1  0
 39 72  1  0
 39 73  1  0
M  END
$$$$
