
     RDKit          3D

 41 42  0  0  0  0  0  0  0  0999 V2000
   -5.3102    1.5622   -1.5666 C   0  0  0  0  0  0  0  0  0  0  0  0
   -4.7748    1.5685   -0.1372 C   0  0  0  0  0  0  0  0  0  0  0  0
   -5.6211    0.7208    0.8093 C   0  0  0  0  0  0  0  0  0  0  0  0
   -3.3549    1.2426   -0.0713 N   0  0  0  0  0  0  0  0  0  0  0  0
   -2.9065   -0.0476   -0.2635 C   0  0  0  0  0  0  0  0  0  0  0  0
   -3.5350   -0.8919   -1.0872 N   0  0  0  0  0  0  0  0  0  0  0  0
   -3.0132   -2.1233   -1.2210 C   0  0  0  0  0  0  0  0  0  0  0  0
   -1.8905   -2.5474   -0.5564 C   0  0  0  0  0  0  0  0  0  0  0  0
   -1.3056   -1.6198    0.2800 C   0  0  0  0  0  0  0  0  0  0  0  0
   -0.0520   -1.9556    1.0527 C   0  0  0  0  0  0  0  0  0  0  0  0
    1.1477   -1.3474    0.4884 N   0  0  0  0  0  0  0  0  0  0  0  0
    1.5657   -1.8242   -1.1498 Cl  0  0  0  0  0  0  0  0  0  0  0  0
    2.1578   -0.9473    1.3617 C   0  0  0  0  0  0  0  0  0  0  0  0
    2.1188   -1.1300    2.5782 O   0  0  0  0  0  0  0  0  0  0  0  0
    3.3417   -0.2418    0.8076 C   0  0  0  0  0  0  0  0  0  0  0  0
    4.6118   -0.5829    1.2839 C   0  0  0  0  0  0  0  0  0  0  0  0
    5.7409    0.0839    0.8016 C   0  0  0  0  0  0  0  0  0  0  0  0
    5.6116    1.1139   -0.1450 C   0  0  0  0  0  0  0  0  0  0  0  0
    6.8370    1.8163   -0.6807 C   0  0  0  0  0  0  0  0  0  0  0  0
    7.3996    1.1471   -1.7245 F   0  0  0  0  0  0  0  0  0  0  0  0
    6.5791    3.0739   -1.1371 F   0  0  0  0  0  0  0  0  0  0  0  0
    7.8215    1.9536    0.2512 F   0  0  0  0  0  0  0  0  0  0  0  0
    4.3299    1.4596   -0.6038 C   0  0  0  0  0  0  0  0  0  0  0  0
    3.1989    0.7945   -0.1224 C   0  0  0  0  0  0  0  0  0  0  0  0
   -1.8081   -0.3720    0.4316 N   0  0  0  0  0  0  0  0  0  0  0  0
   -5.3996    0.5523   -1.9769 H   0  0  0  0  0  0  0  0  0  0  0  0
   -6.3083    2.0130   -1.6000 H   0  0  0  0  0  0  0  0  0  0  0  0
   -4.6585    2.1393   -2.2318 H   0  0  0  0  0  0  0  0  0  0  0  0
   -4.8557    2.6057    0.2134 H   0  0  0  0  0  0  0  0  0  0  0  0
   -5.2167    0.7503    1.8268 H   0  0  0  0  0  0  0  0  0  0  0  0
   -5.6659   -0.3275    0.4977 H   0  0  0  0  0  0  0  0  0  0  0  0
   -6.6490    1.0972    0.8448 H   0  0  0  0  0  0  0  0  0  0  0  0
   -2.8789    1.5789    0.7590 H   0  0  0  0  0  0  0  0  0  0  0  0
   -3.5443   -2.7780   -1.9056 H   0  0  0  0  0  0  0  0  0  0  0  0
   -1.4943   -3.5439   -0.6955 H   0  0  0  0  0  0  0  0  0  0  0  0
    0.1074   -3.0394    1.1060 H   0  0  0  0  0  0  0  0  0  0  0  0
   -0.1940   -1.6114    2.0842 H   0  0  0  0  0  0  0  0  0  0  0  0
    4.7233   -1.3667    2.0309 H   0  0  0  0  0  0  0  0  0  0  0  0
    6.7252   -0.1979    1.1738 H   0  0  0  0  0  0  0  0  0  0  0  0
    4.2061    2.2577   -1.3355 H   0  0  0  0  0  0  0  0  0  0  0  0
    2.2129    1.0952   -0.4708 H   0  0  0  0  0  0  0  0  0  0  0  0
  1  2  1  0
  2  3  1  0
  2  4  1  0
  4  5  1  0
  5  6  2  0
  6  7  1  0
  7  8  2  0
  8  9  1  0
  9 10  1  0
 10 11  1  0
 11 12  1  0
 11 13  1  0
 13 14  2  0
 13 15  1  0
 15 16  2  0
 16 17  1  0
 17 18  2  0
 18 19  1  0
 19 20  1  0
 19 21  1  0
 19 22  1  0
 18 23  1  0
 23 24  2  0
  9 25  2  0
 25  5  1  0
 24 15  1  0
  1 26  1  0
  1 27  1  0
  1 28  1  0
  2 29  1  0
  3 30  1  0
  3 31  1  0
  3 32  1  0
  4 33  1  0
  7 34  1  0
  8 35  1  0
 10 36  1  0
 10 37  1  0
 16 38  1  0
 17 39  1  0
 23 40  1  0
 24 41  1  0
M  END
$$$$
