
     RDKit          3D

 51 51  0  0  0  0  0  0  0  0999 V2000
    7.8409    0.2271    0.3202 C   0  0  0  0  0  0  0  0  0  0  0  0
    6.7074    0.0058   -0.6692 C   0  0  0  0  0  0  0  0  0  0  0  0
    5.3444    0.0420    0.0236 C   0  0  0  0  0  0  0  0  0  0  0  0
    4.2079   -0.1747   -0.9783 C   0  0  0  0  0  0  0  0  0  0  0  0
    2.8257   -0.2767   -0.3234 C   0  0  0  0  0  0  0  0  0  0  0  0
    2.3461    1.0405    0.2901 C   0  0  0  0  0  0  0  0  0  0  0  0
    1.0030    0.9406    1.0262 C   0  0  0  0  0  0  0  0  0  0  0  0
   -0.1928    0.6393    0.1260 C   0  0  0  0  0  0  0  0  0  0  0  0
   -0.2064   -0.7500   -0.2043 O   0  0  0  0  0  0  0  0  0  0  0  0
   -1.3382   -1.1064   -1.0091 C   0  0  0  0  0  0  0  0  0  0  0  0
   -2.5497   -1.3812   -0.1468 C   0  0  0  0  0  0  0  0  0  0  0  0
   -2.3901   -2.0959    1.0555 C   0  0  0  0  0  0  0  0  0  0  0  0
   -3.4882   -2.3556    1.8707 C   0  0  0  0  0  0  0  0  0  0  0  0
   -3.3530   -3.0361    3.0447 O   0  0  0  0  0  0  0  0  0  0  0  0
   -4.7621   -1.9320    1.5141 C   0  0  0  0  0  0  0  0  0  0  0  0
   -4.9408   -1.2415    0.3170 C   0  0  0  0  0  0  0  0  0  0  0  0
   -6.2006   -0.8575   -0.0554 O   0  0  0  0  0  0  0  0  0  0  0  0
   -3.8453   -0.9651   -0.5137 C   0  0  0  0  0  0  0  0  0  0  0  0
   -4.0630   -0.2575   -1.7961 C   0  0  0  0  0  0  0  0  0  0  0  0
   -3.7363   -0.8108   -2.8458 O   0  0  0  0  0  0  0  0  0  0  0  0
   -4.6757    1.1346   -1.7525 C   0  0  0  0  0  0  0  0  0  0  0  0
   -4.1460    1.9064   -0.6794 O   0  0  0  0  0  0  0  0  0  0  0  0
   -4.7542    3.1889   -0.6124 C   0  0  0  0  0  0  0  0  0  0  0  0
    7.8435   -0.5482    1.0930 H   0  0  0  0  0  0  0  0  0  0  0  0
    8.8057    0.1959   -0.1951 H   0  0  0  0  0  0  0  0  0  0  0  0
    7.7490    1.2016    0.8105 H   0  0  0  0  0  0  0  0  0  0  0  0
    6.8479   -0.9615   -1.1656 H   0  0  0  0  0  0  0  0  0  0  0  0
    6.7512    0.7790   -1.4451 H   0  0  0  0  0  0  0  0  0  0  0  0
    5.3061   -0.7340    0.7978 H   0  0  0  0  0  0  0  0  0  0  0  0
    5.2256    1.0084    0.5259 H   0  0  0  0  0  0  0  0  0  0  0  0
    4.2062    0.6339   -1.7195 H   0  0  0  0  0  0  0  0  0  0  0  0
    4.3922   -1.1062   -1.5282 H   0  0  0  0  0  0  0  0  0  0  0  0
    2.1211   -0.5931   -1.1003 H   0  0  0  0  0  0  0  0  0  0  0  0
    2.8375   -1.0634    0.4405 H   0  0  0  0  0  0  0  0  0  0  0  0
    3.0858    1.3972    1.0153 H   0  0  0  0  0  0  0  0  0  0  0  0
    2.2784    1.8067   -0.4916 H   0  0  0  0  0  0  0  0  0  0  0  0
    0.8254    1.9052    1.5176 H   0  0  0  0  0  0  0  0  0  0  0  0
    1.0790    0.1810    1.8138 H   0  0  0  0  0  0  0  0  0  0  0  0
   -0.1489    1.2434   -0.7876 H   0  0  0  0  0  0  0  0  0  0  0  0
   -1.1127    0.8892    0.6669 H   0  0  0  0  0  0  0  0  0  0  0  0
   -1.5012   -0.3261   -1.7582 H   0  0  0  0  0  0  0  0  0  0  0  0
   -1.0835   -2.0281   -1.5434 H   0  0  0  0  0  0  0  0  0  0  0  0
   -1.3962   -2.4331    1.3429 H   0  0  0  0  0  0  0  0  0  0  0  0
   -2.4155   -3.2665    3.1635 H   0  0  0  0  0  0  0  0  0  0  0  0
   -5.5953   -2.1567    2.1721 H   0  0  0  0  0  0  0  0  0  0  0  0
   -6.8343   -1.1727    0.6123 H   0  0  0  0  0  0  0  0  0  0  0  0
   -4.4240    1.6336   -2.6957 H   0  0  0  0  0  0  0  0  0  0  0  0
   -5.7646    1.0500   -1.6798 H   0  0  0  0  0  0  0  0  0  0  0  0
   -4.3113    3.7363    0.2243 H   0  0  0  0  0  0  0  0  0  0  0  0
   -4.5698    3.7496   -1.5340 H   0  0  0  0  0  0  0  0  0  0  0  0
   -5.8305    3.0946   -0.4373 H   0  0  0  0  0  0  0  0  0  0  0  0
  1  2  1  0
  2  3  1  0
  3  4  1  0
  4  5  1  0
  5  6  1  0
  6  7  1  0
  7  8  1  0
  8  9  1  0
  9 10  1  0
 10 11  1  0
 11 12  2  0
 12 13  1  0
 13 14  1  0
 13 15  2  0
 15 16  1  0
 16 17  1  0
 16 18  2  0
 18 19  1  0
 19 20  2  0
 19 21  1  0
 21 22  1  0
 22 23  1  0
 18 11  1  0
  1 24  1  0
  1 25  1  0
  1 26  1  0
  2 27  1  0
  2 28  1  0
  3 29  1  0
  3 30  1  0
  4 31  1  0
  4 32  1  0
  5 33  1  0
  5 34  1  0
  6 35  1  0
  6 36  1  0
  7 37  1  0
  7 38  1  0
  8 39  1  0
  8 40  1  0
 10 41  1  0
 10 42  1  0
 12 43  1  0
 14 44  1  0
 15 45  1  0
 17 46  1  0
 21 47  1  0
 21 48  1  0
 23 49  1  0
 23 50  1  0
 23 51  1  0
M  END
$$$$
