
     RDKit          3D

 41 42  0  0  0  0  0  0  0  0999 V2000
   -5.0649    0.7158   -0.3057 C   0  0  0  0  0  0  0  0  0  0  0  0
   -3.7629    0.9642    0.4398 C   0  0  0  0  0  0  0  0  0  0  0  0
   -2.5972    1.1803   -0.5302 C   0  0  0  0  0  0  0  0  0  0  0  0
   -1.2824    1.3807    0.1830 C   0  0  0  0  0  0  0  0  0  0  0  0
   -1.0726    2.6186    0.8034 C   0  0  0  0  0  0  0  0  0  0  0  0
    0.0375    2.9737    1.4818 N   0  0  0  0  0  0  0  0  0  0  0  0
    1.0115    2.0451    1.5493 C   0  0  0  0  0  0  0  0  0  0  0  0
    0.9345    0.7824    0.9672 C   0  0  0  0  0  0  0  0  0  0  0  0
    2.0435   -0.1734    1.1231 C   0  0  0  0  0  0  0  0  0  0  0  0
    3.2726   -0.0474    0.6091 C   0  0  0  0  0  0  0  0  0  0  0  0
    3.9023    1.2417   -0.3559 S   0  0  0  0  0  0  0  0  0  0  0  0
    5.4295    0.4483   -0.5119 C   0  0  0  0  0  0  0  0  0  0  0  0
    6.4309    0.9060   -1.1613 N   0  0  0  0  0  0  0  0  0  0  0  0
    5.4549   -0.7298    0.1379 N   0  0  0  0  0  0  0  0  0  0  0  0
    4.3158   -1.0986    0.7933 C   0  0  0  0  0  0  0  0  0  0  0  0
    4.1802   -2.1285    1.4341 O   0  0  0  0  0  0  0  0  0  0  0  0
   -0.2477    0.4257    0.2702 C   0  0  0  0  0  0  0  0  0  0  0  0
   -0.2973   -0.8601   -0.3101 N   0  0  0  0  0  0  0  0  0  0  0  0
   -0.0063   -0.8594   -1.7434 C   0  0  0  0  0  0  0  0  0  0  0  0
   -1.3621   -1.7476    0.1641 C   0  0  0  0  0  0  0  0  0  0  0  0
   -0.8272   -3.1647    0.3211 C   0  0  0  0  0  0  0  0  0  0  0  0
   -4.9937   -0.1797   -0.9312 H   0  0  0  0  0  0  0  0  0  0  0  0
   -5.8857    0.5700    0.4034 H   0  0  0  0  0  0  0  0  0  0  0  0
   -5.3174    1.5656   -0.9479 H   0  0  0  0  0  0  0  0  0  0  0  0
   -3.5599    0.1123    1.0982 H   0  0  0  0  0  0  0  0  0  0  0  0
   -3.8862    1.8398    1.0883 H   0  0  0  0  0  0  0  0  0  0  0  0
   -2.5469    0.3512   -1.2387 H   0  0  0  0  0  0  0  0  0  0  0  0
   -2.7947    2.0659   -1.1495 H   0  0  0  0  0  0  0  0  0  0  0  0
   -1.8336    3.3955    0.7658 H   0  0  0  0  0  0  0  0  0  0  0  0
    1.8881    2.3541    2.1122 H   0  0  0  0  0  0  0  0  0  0  0  0
    1.7775   -1.0761    1.6709 H   0  0  0  0  0  0  0  0  0  0  0  0
    6.1574    1.8125   -1.5602 H   0  0  0  0  0  0  0  0  0  0  0  0
    6.2794   -1.3072    0.1420 H   0  0  0  0  0  0  0  0  0  0  0  0
   -0.8336   -0.4534   -2.3329 H   0  0  0  0  0  0  0  0  0  0  0  0
    0.1828   -1.8796   -2.0926 H   0  0  0  0  0  0  0  0  0  0  0  0
    0.8953   -0.2768   -1.9653 H   0  0  0  0  0  0  0  0  0  0  0  0
   -2.2110   -1.7535   -0.5282 H   0  0  0  0  0  0  0  0  0  0  0  0
   -1.7320   -1.4260    1.1454 H   0  0  0  0  0  0  0  0  0  0  0  0
   -0.5029   -3.5805   -0.6378 H   0  0  0  0  0  0  0  0  0  0  0  0
   -1.6048   -3.8199    0.7262 H   0  0  0  0  0  0  0  0  0  0  0  0
    0.0291   -3.1871    1.0035 H   0  0  0  0  0  0  0  0  0  0  0  0
  1  2  1  0
  2  3  1  0
  3  4  1  0
  4  5  2  0
  5  6  1  0
  6  7  2  0
  7  8  1  0
  8  9  1  0
  9 10  2  0
 10 11  1  0
 11 12  1  0
 12 13  2  3
 12 14  1  0
 14 15  1  0
 15 16  2  0
  8 17  2  0
 17 18  1  0
 18 19  1  0
 18 20  1  0
 20 21  1  0
 17  4  1  0
 15 10  1  0
  1 22  1  0
  1 23  1  0
  1 24  1  0
  2 25  1  0
  2 26  1  0
  3 27  1  0
  3 28  1  0
  5 29  1  0
  7 30  1  0
  9 31  1  0
 13 32  1  0
 14 33  1  0
 19 34  1  0
 19 35  1  0
 19 36  1  0
 20 37  1  0
 20 38  1  0
 21 39  1  0
 21 40  1  0
 21 41  1  0
M  END
$$$$
