
     RDKit          3D

 52 54  0  0  0  0  0  0  0  0999 V2000
   -5.5406   -1.3265    1.9129 C   0  0  0  0  0  0  0  0  0  0  0  0
   -5.1359   -1.0732    0.4634 C   0  0  0  0  0  0  0  0  0  0  0  0
   -5.1641    0.3638    0.1208 N   0  0  0  0  0  0  0  0  0  0  0  0
   -6.5511    0.8260   -0.0877 C   0  0  0  0  0  0  0  0  0  0  0  0
   -6.6764    2.3453   -0.0132 C   0  0  0  0  0  0  0  0  0  0  0  0
   -4.3498    0.6130   -1.0971 C   0  0  0  0  0  0  0  0  0  0  0  0
   -2.8486    0.4836   -0.8744 C   0  0  0  0  0  0  0  0  0  0  0  0
   -2.0950   -0.2998   -1.7678 C   0  0  0  0  0  0  0  0  0  0  0  0
   -0.7077   -0.3917   -1.6432 C   0  0  0  0  0  0  0  0  0  0  0  0
   -0.0539    0.3155   -0.6300 C   0  0  0  0  0  0  0  0  0  0  0  0
    1.4274    0.2707   -0.4767 C   0  0  0  0  0  0  0  0  0  0  0  0
    2.0131    1.2732   -0.0828 O   0  0  0  0  0  0  0  0  0  0  0  0
    2.0080   -0.9590   -0.7550 N   0  0  0  0  0  0  0  0  0  0  0  0
    3.3475   -1.2823   -0.7464 C   0  0  0  0  0  0  0  0  0  0  0  0
    4.3672   -0.4239   -0.6174 C   0  0  0  0  0  0  0  0  0  0  0  0
    5.7683   -0.8388   -0.5781 C   0  0  0  0  0  0  0  0  0  0  0  0
    6.3428   -1.8077   -1.4159 C   0  0  0  0  0  0  0  0  0  0  0  0
    7.7006   -2.1300   -1.3310 C   0  0  0  0  0  0  0  0  0  0  0  0
    8.5341   -1.4861   -0.4084 C   0  0  0  0  0  0  0  0  0  0  0  0
    7.9836   -0.5045    0.4284 C   0  0  0  0  0  0  0  0  0  0  0  0
    8.5889    0.2604    1.3967 N   0  0  0  0  0  0  0  0  0  0  0  0
    7.6336    1.0196    1.8819 C   0  0  0  0  0  0  0  0  0  0  0  0
    6.4364    0.7778    1.2711 N   0  0  0  0  0  0  0  0  0  0  0  0
    6.6293   -0.2005    0.3250 C   0  0  0  0  0  0  0  0  0  0  0  0
   -0.7929    1.1192    0.2454 C   0  0  0  0  0  0  0  0  0  0  0  0
   -2.1892    1.1676    0.1677 C   0  0  0  0  0  0  0  0  0  0  0  0
   -2.8912    2.0607    0.9971 N   0  0  0  0  0  0  0  0  0  0  0  0
   -6.5920   -1.0916    2.0995 H   0  0  0  0  0  0  0  0  0  0  0  0
   -5.3935   -2.3833    2.1597 H   0  0  0  0  0  0  0  0  0  0  0  0
   -4.9269   -0.7349    2.6006 H   0  0  0  0  0  0  0  0  0  0  0  0
   -5.7706   -1.6559   -0.2161 H   0  0  0  0  0  0  0  0  0  0  0  0
   -4.1201   -1.4725    0.3605 H   0  0  0  0  0  0  0  0  0  0  0  0
   -6.9517    0.4604   -1.0417 H   0  0  0  0  0  0  0  0  0  0  0  0
   -7.2068    0.4308    0.6954 H   0  0  0  0  0  0  0  0  0  0  0  0
   -6.1712    2.8465   -0.8431 H   0  0  0  0  0  0  0  0  0  0  0  0
   -7.7325    2.6324   -0.0535 H   0  0  0  0  0  0  0  0  0  0  0  0
   -6.2630    2.7281    0.9259 H   0  0  0  0  0  0  0  0  0  0  0  0
   -4.5002    1.6336   -1.4677 H   0  0  0  0  0  0  0  0  0  0  0  0
   -4.6771   -0.0556   -1.9047 H   0  0  0  0  0  0  0  0  0  0  0  0
   -2.5877   -0.8262   -2.5828 H   0  0  0  0  0  0  0  0  0  0  0  0
   -0.1515   -0.9752   -2.3716 H   0  0  0  0  0  0  0  0  0  0  0  0
    1.3757   -1.7401   -0.8881 H   0  0  0  0  0  0  0  0  0  0  0  0
    3.5389   -2.3477   -0.8573 H   0  0  0  0  0  0  0  0  0  0  0  0
    4.1936    0.6427   -0.5172 H   0  0  0  0  0  0  0  0  0  0  0  0
    5.7320   -2.3157   -2.1591 H   0  0  0  0  0  0  0  0  0  0  0  0
    8.1193   -2.8847   -1.9925 H   0  0  0  0  0  0  0  0  0  0  0  0
    9.5884   -1.7289   -0.3375 H   0  0  0  0  0  0  0  0  0  0  0  0
    7.7451    1.7544    2.6679 H   0  0  0  0  0  0  0  0  0  0  0  0
    5.5578    1.2326    1.4770 H   0  0  0  0  0  0  0  0  0  0  0  0
   -0.2725    1.7075    0.9982 H   0  0  0  0  0  0  0  0  0  0  0  0
   -2.4519    2.2135    1.8984 H   0  0  0  0  0  0  0  0  0  0  0  0
   -3.8659    1.7573    1.0984 H   0  0  0  0  0  0  0  0  0  0  0  0
  1  2  1  0
  2  3  1  0
  3  4  1  0
  4  5  1  0
  3  6  1  0
  6  7  1  0
  7  8  2  0
  8  9  1  0
  9 10  2  0
 10 11  1  0
 11 12  2  0
 11 13  1  0
 13 14  1  0
 14 15  2  3
 15 16  1  0
 16 17  2  0
 17 18  1  0
 18 19  2  0
 19 20  1  0
 20 21  1  0
 21 22  2  0
 22 23  1  0
 23 24  1  0
 10 25  1  0
 25 26  2  0
 26 27  1  0
 26  7  1  0
 24 16  1  0
 24 20  2  0
  1 28  1  0
  1 29  1  0
  1 30  1  0
  2 31  1  0
  2 32  1  0
  4 33  1  0
  4 34  1  0
  5 35  1  0
  5 36  1  0
  5 37  1  0
  6 38  1  0
  6 39  1  0
  8 40  1  0
  9 41  1  0
 13 42  1  0
 14 43  1  0
 15 44  1  0
 17 45  1  0
 18 46  1  0
 19 47  1  0
 22 48  1  0
 23 49  1  0
 25 50  1  0
 27 51  1  0
 27 52  1  0
M  END
$$$$
