
     RDKit          3D

 56 58  0  0  0  0  0  0  0  0999 V2000
    4.4990    2.4404    0.8893 C   0  0  0  0  0  0  0  0  0  0  0  0
    5.0779    2.1511   -0.4916 C   0  0  0  0  0  0  0  0  0  0  0  0
    6.5099    1.6313   -0.4083 C   0  0  0  0  0  0  0  0  0  0  0  0
    4.1569    1.3178   -1.4111 C   0  0  0  0  0  0  0  0  0  0  0  0
    3.5602   -0.0446   -0.9879 C   0  0  1  0  0  0  0  0  0  0  0  0
    4.5968   -1.1100   -0.5854 C   0  0  0  0  0  0  0  0  0  0  0  0
    4.9707   -0.9759    0.7862 O   0  0  0  0  0  0  0  0  0  0  0  0
    2.5794    0.1336    0.0931 N   0  0  0  0  0  0  0  0  0  0  0  0
    1.4164   -0.6258   -0.0316 C   0  0  0  0  0  0  0  0  0  0  0  0
    1.4396   -1.8887   -0.5045 N   0  0  0  0  0  0  0  0  0  0  0  0
    0.2795   -2.5879   -0.6279 N   0  0  0  0  0  0  0  0  0  0  0  0
   -0.8808   -1.9905   -0.2734 C   0  0  0  0  0  0  0  0  0  0  0  0
   -2.0897   -2.8115   -0.4213 C   0  0  0  0  0  0  0  0  0  0  0  0
   -2.2110   -4.0198    0.2855 C   0  0  0  0  0  0  0  0  0  0  0  0
   -3.3664   -4.8011    0.1846 C   0  0  0  0  0  0  0  0  0  0  0  0
   -4.4145   -4.4016   -0.6357 C   0  0  0  0  0  0  0  0  0  0  0  0
   -4.3113   -3.2197   -1.3656 C   0  0  0  0  0  0  0  0  0  0  0  0
   -3.1623   -2.4337   -1.2500 C   0  0  0  0  0  0  0  0  0  0  0  0
   -3.0967   -1.2536   -1.9413 O   0  0  0  0  0  0  0  0  0  0  0  0
   -0.8647   -0.6781    0.2236 C   0  0  0  0  0  0  0  0  0  0  0  0
   -2.0538   -0.0724    0.6799 N   0  0  0  0  0  0  0  0  0  0  0  0
   -1.9376    1.3011    1.1451 C   0  0  0  0  0  0  0  0  0  0  0  0
   -3.2911    1.7680    1.6326 C   0  0  0  0  0  0  0  0  0  0  0  0
   -3.8939    1.1505    2.7374 C   0  0  0  0  0  0  0  0  0  0  0  0
   -5.1410    1.5741    3.1950 C   0  0  0  0  0  0  0  0  0  0  0  0
   -5.7989    2.6221    2.5536 C   0  0  0  0  0  0  0  0  0  0  0  0
   -5.2131    3.2433    1.4552 C   0  0  0  0  0  0  0  0  0  0  0  0
   -3.9656    2.8174    0.9943 C   0  0  0  0  0  0  0  0  0  0  0  0
    0.2965    0.0014    0.3481 N   0  0  0  0  0  0  0  0  0  0  0  0
    4.4701    1.5515    1.5191 H   0  0  0  0  0  0  0  0  0  0  0  0
    3.4834    2.8400    0.7943 H   0  0  0  0  0  0  0  0  0  0  0  0
    5.0963    3.1931    1.4055 H   0  0  0  0  0  0  0  0  0  0  0  0
    5.1600    3.1276   -0.9894 H   0  0  0  0  0  0  0  0  0  0  0  0
    6.6011    0.7288    0.1953 H   0  0  0  0  0  0  0  0  0  0  0  0
    6.9064    1.4269   -1.4044 H   0  0  0  0  0  0  0  0  0  0  0  0
    7.1567    2.3907    0.0505 H   0  0  0  0  0  0  0  0  0  0  0  0
    4.6966    1.1557   -2.3586 H   0  0  0  0  0  0  0  0  0  0  0  0
    3.3066    1.9690   -1.6735 H   0  0  0  0  0  0  0  0  0  0  0  0
    3.0588   -0.4070   -1.8975 H   0  0  0  0  0  0  0  0  0  0  0  0
    4.1769   -2.1146   -0.6985 H   0  0  0  0  0  0  0  0  0  0  0  0
    5.4913   -1.0564   -1.2112 H   0  0  0  0  0  0  0  0  0  0  0  0
    4.1345   -0.7748    1.2568 H   0  0  0  0  0  0  0  0  0  0  0  0
    2.2379    1.0823    0.2209 H   0  0  0  0  0  0  0  0  0  0  0  0
   -1.4006   -4.3500    0.9414 H   0  0  0  0  0  0  0  0  0  0  0  0
   -3.4483   -5.7158    0.7637 H   0  0  0  0  0  0  0  0  0  0  0  0
   -5.3147   -5.0075   -0.7012 H   0  0  0  0  0  0  0  0  0  0  0  0
   -5.1518   -2.9011   -1.9824 H   0  0  0  0  0  0  0  0  0  0  0  0
   -3.7585   -1.2862   -2.6547 H   0  0  0  0  0  0  0  0  0  0  0  0
   -2.7661   -0.1687   -0.0468 H   0  0  0  0  0  0  0  0  0  0  0  0
   -1.2269    1.3815    1.9785 H   0  0  0  0  0  0  0  0  0  0  0  0
   -1.5861    1.9557    0.3360 H   0  0  0  0  0  0  0  0  0  0  0  0
   -3.3903    0.3281    3.2390 H   0  0  0  0  0  0  0  0  0  0  0  0
   -5.5986    1.0856    4.0491 H   0  0  0  0  0  0  0  0  0  0  0  0
   -6.7700    2.9526    2.9118 H   0  0  0  0  0  0  0  0  0  0  0  0
   -5.7292    4.0608    0.9550 H   0  0  0  0  0  0  0  0  0  0  0  0
   -3.5259    3.3151    0.1353 H   0  0  0  0  0  0  0  0  0  0  0  0
  1  2  1  0
  2  3  1  0
  2  4  1  0
  4  5  1  0
  5  6  1  0
  6  7  1  0
  5  8  1  0
  8  9  1  0
  9 10  2  0
 10 11  1  0
 11 12  2  0
 12 13  1  0
 13 14  2  0
 14 15  1  0
 15 16  2  0
 16 17  1  0
 17 18  2  0
 18 19  1  0
 12 20  1  0
 20 21  1  0
 21 22  1  0
 22 23  1  0
 23 24  2  0
 24 25  1  0
 25 26  2  0
 26 27  1  0
 27 28  2  0
 20 29  2  0
 29  9  1  0
 18 13  1  0
 28 23  1  0
  1 30  1  0
  1 31  1  0
  1 32  1  0
  2 33  1  0
  3 34  1  0
  3 35  1  0
  3 36  1  0
  4 37  1  0
  4 38  1  0
  5 39  1  6
  6 40  1  0
  6 41  1  0
  7 42  1  0
  8 43  1  0
 14 44  1  0
 15 45  1  0
 16 46  1  0
 17 47  1  0
 19 48  1  0
 21 49  1  0
 22 50  1  0
 22 51  1  0
 24 52  1  0
 25 53  1  0
 26 54  1  0
 27 55  1  0
 28 56  1  0
M  END
$$$$
